/*---------------------------------------------------------------------------*\
  =========                 |
  \\      /  F ield         | OpenFOAM: The Open Source CFD Toolbox
   \\    /   O peration     | Website:  https://openfoam.org
    \\  /    A nd           | Version:  13
     \\/     M anipulation  |
\*---------------------------------------------------------------------------*/
Build  : 13-cde978a97c93
Exec   : teseLB_definitive
Date   : Jan 30 2026
Time   : 20:57:49
Host   : "leonardomaximinobernardo"
PID    : 28056
I/O    : uncollated
Case   : /home/leonardomaximinobernardo/My_projects/teseLB_quantico/teseLB/validationCase_definitive
nProcs : 1
sigFpe : Enabling floating point exception trapping (FOAM_SIGFPE).
fileModificationChecking : Monitoring run-time modified files using timeStampMaster (fileModificationSkew 10)
allowSystemOperations : Allowing user-supplied system call operations

// * * * * * * * * * * * * * * * * * * * * * * * * * * * * * * * * * * * * * //
Create time

Create mesh for time = 0


PIMPLE: Convergence criteria found
        p_rgh: tolerance 0.0001
        U: tolerance 0.0001
        h: tolerance 0.0001
        "(k|epsilon|omega)": tolerance 0.001


PIMPLE: Operating solver in transient mode with 1 outer corrector
PIMPLE: Operating solver in PISO mode


Reading thermophysical properties

Reading field p_rgh

Reading field U

Reading/calculating face flux field phi

Reading field T

Reading field w

Creating viscosity model

Creating turbulence model

Selecting turbulence model type RAS
    Selecting RAS turbulence model kOmegaSST
Reading field alphat

Reading field difft


Reading g
No MRF models present

Courant Number mean: 0 max: 0
Selecting patchDistMethod meshWave

 Starting time loop

Courant Number mean: 0 max: 0
Time = 0.5s

DICPCG:  Solving for w, Initial residual = 0.440223, Final residual = 1.7573e-10, No Iterations 1
Global Volume-Averaged Solid Fraction (Gs) = 0
DICPCG:  Solving for T, Initial residual = 1, Final residual = 0.00645758, No Iterations 1
GAMG:  Solving for p_rgh, Initial residual = 0, Final residual = 0, No Iterations 0
time step continuity errors : sum local = 0, global = 0, cumulative = 0
DILUPBiCGStab:  Solving for omega, Initial residual = 0.137409, Final residual = 0.0010497, No Iterations 1
DILUPBiCGStab:  Solving for k, Initial residual = 1, Final residual = 0.0168047, No Iterations 1
ExecutionTime = 0.326909 s  ClockTime = 0 s

Courant Number mean: 0 max: 0
Time = 1s

DICPCG:  Solving for w, Initial residual = 0.325237, Final residual = 1.3838e-10, No Iterations 1
Global Volume-Averaged Solid Fraction (Gs) = 0.000414009
DICPCG:  Solving for T, Initial residual = 0.133077, Final residual = 0.00106486, No Iterations 1
GAMG:  Solving for p_rgh, Initial residual = 0, Final residual = 0, No Iterations 0
time step continuity errors : sum local = 0, global = 0, cumulative = 0
DILUPBiCGStab:  Solving for omega, Initial residual = 0.0141748, Final residual = 6.88952e-06, No Iterations 1
DILUPBiCGStab:  Solving for k, Initial residual = 0.436755, Final residual = 0.000567351, No Iterations 1
ExecutionTime = 0.40138 s  ClockTime = 0 s

Courant Number mean: 0 max: 0
Time = 1.5s

DICPCG:  Solving for w, Initial residual = 0.161637, Final residual = 7.42878e-11, No Iterations 1
Global Volume-Averaged Solid Fraction (Gs) = 0.0106493
DICPCG:  Solving for T, Initial residual = 0.0519251, Final residual = 0.000606064, No Iterations 1
GAMG:  Solving for p_rgh, Initial residual = 0, Final residual = 0, No Iterations 0
time step continuity errors : sum local = 0, global = 0, cumulative = 0
DILUPBiCGStab:  Solving for omega, Initial residual = 0.00218324, Final residual = 4.59144e-06, No Iterations 1
DILUPBiCGStab:  Solving for k, Initial residual = 0.0340321, Final residual = 0.000100501, No Iterations 1
ExecutionTime = 0.464387 s  ClockTime = 1 s

Courant Number mean: 0 max: 0
Time = 2s

DICPCG:  Solving for w, Initial residual = 0.119021, Final residual = 5.44321e-11, No Iterations 1
Global Volume-Averaged Solid Fraction (Gs) = 0.0137049
DICPCG:  Solving for T, Initial residual = 0.0320808, Final residual = 0.000323204, No Iterations 1
GAMG:  Solving for p_rgh, Initial residual = 0, Final residual = 0, No Iterations 0
time step continuity errors : sum local = 0, global = 0, cumulative = 0
DILUPBiCGStab:  Solving for omega, Initial residual = 0.000549252, Final residual = 3.0365e-06, No Iterations 1
DILUPBiCGStab:  Solving for k, Initial residual = 0.0122037, Final residual = 7.07756e-05, No Iterations 1
ExecutionTime = 0.529676 s  ClockTime = 1 s

Courant Number mean: 0 max: 0
Time = 2.5s

DICPCG:  Solving for w, Initial residual = 0.0927613, Final residual = 4.42694e-11, No Iterations 1
Global Volume-Averaged Solid Fraction (Gs) = 0.0148709
DICPCG:  Solving for T, Initial residual = 0.0247135, Final residual = 0.000183903, No Iterations 1
GAMG:  Solving for p_rgh, Initial residual = 0, Final residual = 0, No Iterations 0
time step continuity errors : sum local = 0, global = 0, cumulative = 0
DILUPBiCGStab:  Solving for omega, Initial residual = 0.000325998, Final residual = 2.42533e-06, No Iterations 1
DILUPBiCGStab:  Solving for k, Initial residual = 0.00645831, Final residual = 5.73083e-05, No Iterations 1
ExecutionTime = 0.59656 s  ClockTime = 1 s

Courant Number mean: 0 max: 0
Time = 3s

DICPCG:  Solving for w, Initial residual = 0.0759071, Final residual = 3.61057e-11, No Iterations 1
Global Volume-Averaged Solid Fraction (Gs) = 0.0154809
DICPCG:  Solving for T, Initial residual = 0.0208429, Final residual = 0.000123068, No Iterations 1
GAMG:  Solving for p_rgh, Initial residual = 0, Final residual = 0, No Iterations 0
time step continuity errors : sum local = 0, global = 0, cumulative = 0
DILUPBiCGStab:  Solving for omega, Initial residual = 0.0002305, Final residual = 1.99192e-06, No Iterations 1
DILUPBiCGStab:  Solving for k, Initial residual = 0.00445087, Final residual = 4.16817e-05, No Iterations 1
ExecutionTime = 0.665306 s  ClockTime = 1 s

Courant Number mean: 0 max: 0
Time = 3.5s

DICPCG:  Solving for w, Initial residual = 0.0625446, Final residual = 3.04692e-11, No Iterations 1
Global Volume-Averaged Solid Fraction (Gs) = 0.0158883
DICPCG:  Solving for T, Initial residual = 0.0182795, Final residual = 9.12384e-05, No Iterations 1
GAMG:  Solving for p_rgh, Initial residual = 0, Final residual = 0, No Iterations 0
time step continuity errors : sum local = 0, global = 0, cumulative = 0
DILUPBiCGStab:  Solving for omega, Initial residual = 0.000179107, Final residual = 1.64712e-06, No Iterations 1
DILUPBiCGStab:  Solving for k, Initial residual = 0.0036498, Final residual = 3.08484e-05, No Iterations 1
ExecutionTime = 0.729857 s  ClockTime = 1 s

Courant Number mean: 0 max: 0
Time = 4s

DICPCG:  Solving for w, Initial residual = 0.0474318, Final residual = 2.31462e-11, No Iterations 1
Global Volume-Averaged Solid Fraction (Gs) = 0.0162904
DICPCG:  Solving for T, Initial residual = 0.03635, Final residual = 0.000246457, No Iterations 1
GAMG:  Solving for p_rgh, Initial residual = 0, Final residual = 0, No Iterations 0
time step continuity errors : sum local = 0, global = 0, cumulative = 0
DILUPBiCGStab:  Solving for omega, Initial residual = 0.000148106, Final residual = 1.33855e-06, No Iterations 1
DILUPBiCGStab:  Solving for k, Initial residual = 0.00330866, Final residual = 2.60804e-05, No Iterations 1
ExecutionTime = 0.794491 s  ClockTime = 1 s

Courant Number mean: 0 max: 0
Time = 4.5s

DICPCG:  Solving for w, Initial residual = 0.0468385, Final residual = 2.28454e-11, No Iterations 1
Global Volume-Averaged Solid Fraction (Gs) = 0.0189269
DICPCG:  Solving for T, Initial residual = 0.0360576, Final residual = 0.000403998, No Iterations 1
GAMG:  Solving for p_rgh, Initial residual = 0, Final residual = 0, No Iterations 0
time step continuity errors : sum local = 0, global = 0, cumulative = 0
DILUPBiCGStab:  Solving for omega, Initial residual = 0.000127897, Final residual = 1.05599e-06, No Iterations 1
DILUPBiCGStab:  Solving for k, Initial residual = 0.00316367, Final residual = 2.33986e-05, No Iterations 1
ExecutionTime = 0.862761 s  ClockTime = 1 s

Courant Number mean: 0 max: 0
Time = 5s

DICPCG:  Solving for w, Initial residual = 0.0422355, Final residual = 2.05425e-11, No Iterations 1
Global Volume-Averaged Solid Fraction (Gs) = 0.0168914
DICPCG:  Solving for T, Initial residual = 0.029205, Final residual = 0.000216154, No Iterations 1
GAMG:  Solving for p_rgh, Initial residual = 0, Final residual = 0, No Iterations 0
time step continuity errors : sum local = 0, global = 0, cumulative = 0
DILUPBiCGStab:  Solving for omega, Initial residual = 0.00011425, Final residual = 8.17752e-07, No Iterations 1
DILUPBiCGStab:  Solving for k, Initial residual = 0.0031136, Final residual = 2.15707e-05, No Iterations 1
ExecutionTime = 1.0258 s  ClockTime = 1 s

Courant Number mean: 0 max: 0
Time = 5.5s

DICPCG:  Solving for w, Initial residual = 0.0427028, Final residual = 2.07189e-11, No Iterations 1
Global Volume-Averaged Solid Fraction (Gs) = 0.0191216
DICPCG:  Solving for T, Initial residual = 0.0355479, Final residual = 0.000382228, No Iterations 1
GAMG:  Solving for p_rgh, Initial residual = 0, Final residual = 0, No Iterations 0
time step continuity errors : sum local = 0, global = 0, cumulative = 0
DILUPBiCGStab:  Solving for omega, Initial residual = 0.000104325, Final residual = 6.25135e-07, No Iterations 1
DILUPBiCGStab:  Solving for k, Initial residual = 0.00310992, Final residual = 2.03788e-05, No Iterations 1
ExecutionTime = 1.09405 s  ClockTime = 1 s

Courant Number mean: 0 max: 0
Time = 6s

DICPCG:  Solving for w, Initial residual = 0.0336605, Final residual = 1.6402e-11, No Iterations 1
Global Volume-Averaged Solid Fraction (Gs) = 0.0174622
DICPCG:  Solving for T, Initial residual = 0.0267673, Final residual = 0.000198923, No Iterations 1
GAMG:  Solving for p_rgh, Initial residual = 0, Final residual = 0, No Iterations 0
time step continuity errors : sum local = 0, global = 0, cumulative = 0
DILUPBiCGStab:  Solving for omega, Initial residual = 9.76477e-05, Final residual = 4.79636e-07, No Iterations 1
DILUPBiCGStab:  Solving for k, Initial residual = 0.00312981, Final residual = 1.95305e-05, No Iterations 1
ExecutionTime = 1.16534 s  ClockTime = 1 s

Courant Number mean: 0 max: 0
Time = 6.5s

DICPCG:  Solving for w, Initial residual = 0.0338708, Final residual = 1.65133e-11, No Iterations 1
Global Volume-Averaged Solid Fraction (Gs) = 0.0191648
DICPCG:  Solving for T, Initial residual = 0.033667, Final residual = 0.000358805, No Iterations 1
GAMG:  Solving for p_rgh, Initial residual = 0, Final residual = 0, No Iterations 0
time step continuity errors : sum local = 0, global = 0, cumulative = 0
DILUPBiCGStab:  Solving for omega, Initial residual = 9.34504e-05, Final residual = 3.92785e-07, No Iterations 1
DILUPBiCGStab:  Solving for k, Initial residual = 0.0031704, Final residual = 1.89758e-05, No Iterations 1
ExecutionTime = 1.23011 s  ClockTime = 1 s

Courant Number mean: 0 max: 0
Time = 7s

DICPCG:  Solving for w, Initial residual = 0.0283406, Final residual = 1.38222e-11, No Iterations 1
Global Volume-Averaged Solid Fraction (Gs) = 0.0181508
DICPCG:  Solving for T, Initial residual = 0.0250953, Final residual = 0.000187005, No Iterations 1
GAMG:  Solving for p_rgh, Initial residual = 0, Final residual = 0, No Iterations 0
time step continuity errors : sum local = 0, global = 0, cumulative = 0
DILUPBiCGStab:  Solving for omega, Initial residual = 9.09934e-05, Final residual = 3.34922e-07, No Iterations 1
DILUPBiCGStab:  Solving for k, Initial residual = 0.00322397, Final residual = 1.83697e-05, No Iterations 1
ExecutionTime = 1.2956 s  ClockTime = 1 s

Courant Number mean: 0 max: 0
Time = 7.5s

DICPCG:  Solving for w, Initial residual = 0.0285071, Final residual = 1.38723e-11, No Iterations 1
Global Volume-Averaged Solid Fraction (Gs) = 0.0192051
DICPCG:  Solving for T, Initial residual = 0.0318115, Final residual = 0.000337614, No Iterations 1
GAMG:  Solving for p_rgh, Initial residual = 0, Final residual = 0, No Iterations 0
time step continuity errors : sum local = 0, global = 0, cumulative = 0
DILUPBiCGStab:  Solving for omega, Initial residual = 9.02729e-05, Final residual = 3.15524e-07, No Iterations 1
DILUPBiCGStab:  Solving for k, Initial residual = 0.00328287, Final residual = 1.80459e-05, No Iterations 1
ExecutionTime = 1.36819 s  ClockTime = 1 s

Courant Number mean: 0 max: 0
Time = 8s

DICPCG:  Solving for w, Initial residual = 0.0276095, Final residual = 1.34564e-11, No Iterations 1
Global Volume-Averaged Solid Fraction (Gs) = 0.0188553
DICPCG:  Solving for T, Initial residual = 0.023712, Final residual = 0.000177664, No Iterations 1
GAMG:  Solving for p_rgh, Initial residual = 0, Final residual = 0, No Iterations 0
time step continuity errors : sum local = 0, global = 0, cumulative = 0
DILUPBiCGStab:  Solving for omega, Initial residual = 9.01323e-05, Final residual = 3.14992e-07, No Iterations 1
DILUPBiCGStab:  Solving for k, Initial residual = 0.00334481, Final residual = 1.77891e-05, No Iterations 1
ExecutionTime = 1.43722 s  ClockTime = 2 s

Courant Number mean: 0 max: 0
Time = 8.5s

DICPCG:  Solving for w, Initial residual = 0.0253037, Final residual = 1.23151e-11, No Iterations 1
Global Volume-Averaged Solid Fraction (Gs) = 0.0192457
DICPCG:  Solving for T, Initial residual = 0.0300883, Final residual = 0.000318453, No Iterations 1
GAMG:  Solving for p_rgh, Initial residual = 0, Final residual = 0, No Iterations 0
time step continuity errors : sum local = 0, global = 0, cumulative = 0
DILUPBiCGStab:  Solving for omega, Initial residual = 9.0105e-05, Final residual = 3.1707e-07, No Iterations 1
DILUPBiCGStab:  Solving for k, Initial residual = 0.00340781, Final residual = 1.75475e-05, No Iterations 1
ExecutionTime = 1.50751 s  ClockTime = 2 s

Courant Number mean: 0 max: 0
Time = 9s

DICPCG:  Solving for w, Initial residual = 0.0225223, Final residual = 1.09864e-11, No Iterations 1
Global Volume-Averaged Solid Fraction (Gs) = 0.0195318
DICPCG:  Solving for T, Initial residual = 0.0225178, Final residual = 0.000169883, No Iterations 1
GAMG:  Solving for p_rgh, Initial residual = 0, Final residual = 0, No Iterations 0
time step continuity errors : sum local = 0, global = 0, cumulative = 0
DILUPBiCGStab:  Solving for omega, Initial residual = 8.9952e-05, Final residual = 3.18348e-07, No Iterations 1
DILUPBiCGStab:  Solving for k, Initial residual = 0.00347621, Final residual = 1.73132e-05, No Iterations 1
ExecutionTime = 1.57776 s  ClockTime = 2 s

Courant Number mean: 0 max: 0
Time = 9.5s

DICPCG:  Solving for w, Initial residual = 0.023733, Final residual = 1.15431e-11, No Iterations 1
Global Volume-Averaged Solid Fraction (Gs) = 0.0194787
DICPCG:  Solving for T, Initial residual = 0.01193, Final residual = 0.000139327, No Iterations 1
GAMG:  Solving for p_rgh, Initial residual = 0, Final residual = 0, No Iterations 0
time step continuity errors : sum local = 0, global = 0, cumulative = 0
DILUPBiCGStab:  Solving for omega, Initial residual = 8.96242e-05, Final residual = 3.17343e-07, No Iterations 1
DILUPBiCGStab:  Solving for k, Initial residual = 0.0035483, Final residual = 1.71276e-05, No Iterations 1
ExecutionTime = 1.64705 s  ClockTime = 2 s

Courant Number mean: 0 max: 0
Time = 10s

DICPCG:  Solving for w, Initial residual = 0.0209334, Final residual = 1.01863e-11, No Iterations 1
Global Volume-Averaged Solid Fraction (Gs) = 0.0198044
DICPCG:  Solving for T, Initial residual = 0.034343, Final residual = 0.000315296, No Iterations 1
GAMG:  Solving for p_rgh, Initial residual = 0, Final residual = 0, No Iterations 0
time step continuity errors : sum local = 0, global = 0, cumulative = 0
DILUPBiCGStab:  Solving for omega, Initial residual = 8.90904e-05, Final residual = 3.14497e-07, No Iterations 1
DILUPBiCGStab:  Solving for k, Initial residual = 0.00362236, Final residual = 1.6977e-05, No Iterations 1
ExecutionTime = 1.80625 s  ClockTime = 2 s

Courant Number mean: 0 max: 0
Time = 10.5s

DICPCG:  Solving for w, Initial residual = 0.0208861, Final residual = 1.01636e-11, No Iterations 1
Global Volume-Averaged Solid Fraction (Gs) = 0.0194164
DICPCG:  Solving for T, Initial residual = 0.0204038, Final residual = 0.000152516, No Iterations 1
GAMG:  Solving for p_rgh, Initial residual = 0, Final residual = 0, No Iterations 0
time step continuity errors : sum local = 0, global = 0, cumulative = 0
DILUPBiCGStab:  Solving for omega, Initial residual = 8.83851e-05, Final residual = 3.10407e-07, No Iterations 1
DILUPBiCGStab:  Solving for k, Initial residual = 0.00369752, Final residual = 1.68261e-05, No Iterations 1
ExecutionTime = 1.88122 s  ClockTime = 2 s

Courant Number mean: 0 max: 0
Time = 11s

DICPCG:  Solving for w, Initial residual = 0.0200039, Final residual = 9.75611e-12, No Iterations 1
Global Volume-Averaged Solid Fraction (Gs) = 0.0194826
DICPCG:  Solving for T, Initial residual = 0.010761, Final residual = 0.00012853, No Iterations 1
GAMG:  Solving for p_rgh, Initial residual = 0, Final residual = 0, No Iterations 0
time step continuity errors : sum local = 0, global = 0, cumulative = 0
DILUPBiCGStab:  Solving for omega, Initial residual = 8.75371e-05, Final residual = 3.05583e-07, No Iterations 1
DILUPBiCGStab:  Solving for k, Initial residual = 0.00377163, Final residual = 1.66762e-05, No Iterations 1
ExecutionTime = 1.94766 s  ClockTime = 2 s

Courant Number mean: 0 max: 0
Time = 11.5s

DICPCG:  Solving for w, Initial residual = 0.0172851, Final residual = 8.42929e-12, No Iterations 1
Global Volume-Averaged Solid Fraction (Gs) = 0.0198138
DICPCG:  Solving for T, Initial residual = 0.0335332, Final residual = 0.000305419, No Iterations 1
GAMG:  Solving for p_rgh, Initial residual = 0, Final residual = 0, No Iterations 0
time step continuity errors : sum local = 0, global = 0, cumulative = 0
DILUPBiCGStab:  Solving for omega, Initial residual = 8.65738e-05, Final residual = 2.99843e-07, No Iterations 1
DILUPBiCGStab:  Solving for k, Initial residual = 0.00384928, Final residual = 1.65293e-05, No Iterations 1
ExecutionTime = 2.01281 s  ClockTime = 2 s

Courant Number mean: 0 max: 0
Time = 12s

DICPCG:  Solving for w, Initial residual = 0.017816, Final residual = 8.67102e-12, No Iterations 1
Global Volume-Averaged Solid Fraction (Gs) = 0.0196644
DICPCG:  Solving for T, Initial residual = 0.0194113, Final residual = 0.000142144, No Iterations 1
GAMG:  Solving for p_rgh, Initial residual = 0, Final residual = 0, No Iterations 0
time step continuity errors : sum local = 0, global = 0, cumulative = 0
DILUPBiCGStab:  Solving for omega, Initial residual = 8.55446e-05, Final residual = 2.93702e-07, No Iterations 1
DILUPBiCGStab:  Solving for k, Initial residual = 0.00392897, Final residual = 1.64148e-05, No Iterations 1
ExecutionTime = 2.07825 s  ClockTime = 2 s

Courant Number mean: 0 max: 0
Time = 12.5s

DICPCG:  Solving for w, Initial residual = 0.018702, Final residual = 9.08115e-12, No Iterations 1
Global Volume-Averaged Solid Fraction (Gs) = 0.0197899
DICPCG:  Solving for T, Initial residual = 0.0101571, Final residual = 0.000121693, No Iterations 1
GAMG:  Solving for p_rgh, Initial residual = 0, Final residual = 0, No Iterations 0
time step continuity errors : sum local = 0, global = 0, cumulative = 0
DILUPBiCGStab:  Solving for omega, Initial residual = 8.44467e-05, Final residual = 2.87351e-07, No Iterations 1
DILUPBiCGStab:  Solving for k, Initial residual = 0.00401005, Final residual = 1.63283e-05, No Iterations 1
ExecutionTime = 2.14959 s  ClockTime = 2 s

Courant Number mean: 0 max: 0
Time = 13s

DICPCG:  Solving for w, Initial residual = 0.0163413, Final residual = 7.96742e-12, No Iterations 1
Global Volume-Averaged Solid Fraction (Gs) = 0.019824
DICPCG:  Solving for T, Initial residual = 0.0324161, Final residual = 0.000294594, No Iterations 1
GAMG:  Solving for p_rgh, Initial residual = 0, Final residual = 0, No Iterations 0
time step continuity errors : sum local = 0, global = 0, cumulative = 0
DILUPBiCGStab:  Solving for omega, Initial residual = 8.32833e-05, Final residual = 2.81101e-07, No Iterations 1
DILUPBiCGStab:  Solving for k, Initial residual = 0.00408956, Final residual = 1.62333e-05, No Iterations 1
ExecutionTime = 2.21791 s  ClockTime = 2 s

Courant Number mean: 0 max: 0
Time = 13.5s

DICPCG:  Solving for w, Initial residual = 0.0145753, Final residual = 7.10999e-12, No Iterations 1
Global Volume-Averaged Solid Fraction (Gs) = 0.0200547
DICPCG:  Solving for T, Initial residual = 0.0186311, Final residual = 0.000135003, No Iterations 1
GAMG:  Solving for p_rgh, Initial residual = 0, Final residual = 0, No Iterations 0
time step continuity errors : sum local = 0, global = 0, cumulative = 0
DILUPBiCGStab:  Solving for omega, Initial residual = 8.20675e-05, Final residual = 2.74368e-07, No Iterations 1
DILUPBiCGStab:  Solving for k, Initial residual = 0.00417264, Final residual = 1.61441e-05, No Iterations 1
ExecutionTime = 2.28576 s  ClockTime = 2 s

Courant Number mean: 0 max: 0
Time = 14s

DICPCG:  Solving for w, Initial residual = 0.0160243, Final residual = 7.81475e-12, No Iterations 1
Global Volume-Averaged Solid Fraction (Gs) = 0.0201985
DICPCG:  Solving for T, Initial residual = 0.00972642, Final residual = 0.000116609, No Iterations 1
GAMG:  Solving for p_rgh, Initial residual = 0, Final residual = 0, No Iterations 0
time step continuity errors : sum local = 0, global = 0, cumulative = 0
DILUPBiCGStab:  Solving for omega, Initial residual = 8.083e-05, Final residual = 2.67637e-07, No Iterations 1
DILUPBiCGStab:  Solving for k, Initial residual = 0.0042572, Final residual = 1.60819e-05, No Iterations 1
ExecutionTime = 2.3545 s  ClockTime = 2 s

Courant Number mean: 0 max: 0
Time = 14.5s

DICPCG:  Solving for w, Initial residual = 0.0147487, Final residual = 7.18152e-12, No Iterations 1
Global Volume-Averaged Solid Fraction (Gs) = 0.0198375
DICPCG:  Solving for T, Initial residual = 0.0312686, Final residual = 0.000283709, No Iterations 1
GAMG:  Solving for p_rgh, Initial residual = 0, Final residual = 0, No Iterations 0
time step continuity errors : sum local = 0, global = 0, cumulative = 0
DILUPBiCGStab:  Solving for omega, Initial residual = 7.95472e-05, Final residual = 2.60789e-07, No Iterations 1
DILUPBiCGStab:  Solving for k, Initial residual = 0.00433935, Final residual = 1.60013e-05, No Iterations 1
ExecutionTime = 2.42214 s  ClockTime = 3 s

Courant Number mean: 0 max: 0
Time = 15s

DICPCG:  Solving for w, Initial residual = 0.0157763, Final residual = 7.65094e-12, No Iterations 1
Global Volume-Averaged Solid Fraction (Gs) = 0.0204873
DICPCG:  Solving for T, Initial residual = 0.0179316, Final residual = 0.000129317, No Iterations 1
GAMG:  Solving for p_rgh, Initial residual = 0, Final residual = 0, No Iterations 0
time step continuity errors : sum local = 0, global = 0, cumulative = 0
DILUPBiCGStab:  Solving for omega, Initial residual = 7.82344e-05, Final residual = 2.54323e-07, No Iterations 1
DILUPBiCGStab:  Solving for k, Initial residual = 0.00442536, Final residual = 1.59397e-05, No Iterations 1
ExecutionTime = 2.58574 s  ClockTime = 3 s

Courant Number mean: 0 max: 0
Time = 15.5s

DICPCG:  Solving for w, Initial residual = 0.0132578, Final residual = 6.45224e-12, No Iterations 1
Global Volume-Averaged Solid Fraction (Gs) = 0.0206346
DICPCG:  Solving for T, Initial residual = 0.00935617, Final residual = 0.000112398, No Iterations 1
GAMG:  Solving for p_rgh, Initial residual = 0, Final residual = 0, No Iterations 0
time step continuity errors : sum local = 0, global = 0, cumulative = 0
DILUPBiCGStab:  Solving for omega, Initial residual = 7.69151e-05, Final residual = 2.47839e-07, No Iterations 1
DILUPBiCGStab:  Solving for k, Initial residual = 0.00451262, Final residual = 1.59062e-05, No Iterations 1
ExecutionTime = 2.65575 s  ClockTime = 3 s

Courant Number mean: 0 max: 0
Time = 16s

DICPCG:  Solving for w, Initial residual = 0.0132293, Final residual = 6.45795e-12, No Iterations 1
Global Volume-Averaged Solid Fraction (Gs) = 0.0199374
DICPCG:  Solving for T, Initial residual = 0.00685245, Final residual = 8.93972e-05, No Iterations 1
GAMG:  Solving for p_rgh, Initial residual = 0, Final residual = 0, No Iterations 0
time step continuity errors : sum local = 0, global = 0, cumulative = 0
DILUPBiCGStab:  Solving for omega, Initial residual = 7.55751e-05, Final residual = 2.41401e-07, No Iterations 1
DILUPBiCGStab:  Solving for k, Initial residual = 0.00460038, Final residual = 1.58758e-05, No Iterations 1
ExecutionTime = 2.72602 s  ClockTime = 3 s

Courant Number mean: 0 max: 0
Time = 16.5s

DICPCG:  Solving for w, Initial residual = 0.0119533, Final residual = 5.83157e-12, No Iterations 1
Global Volume-Averaged Solid Fraction (Gs) = 0.0199679
DICPCG:  Solving for T, Initial residual = 0.0324779, Final residual = 0.000281474, No Iterations 1
GAMG:  Solving for p_rgh, Initial residual = 0, Final residual = 0, No Iterations 0
time step continuity errors : sum local = 0, global = 0, cumulative = 0
DILUPBiCGStab:  Solving for omega, Initial residual = 7.42029e-05, Final residual = 2.34914e-07, No Iterations 1
DILUPBiCGStab:  Solving for k, Initial residual = 0.00468518, Final residual = 1.58255e-05, No Iterations 1
ExecutionTime = 2.7931 s  ClockTime = 3 s

Courant Number mean: 0 max: 0
Time = 17s

DICPCG:  Solving for w, Initial residual = 0.0134614, Final residual = 6.54148e-12, No Iterations 1
Global Volume-Averaged Solid Fraction (Gs) = 0.0203869
DICPCG:  Solving for T, Initial residual = 0.0169508, Final residual = 0.000118768, No Iterations 1
GAMG:  Solving for p_rgh, Initial residual = 0, Final residual = 0, No Iterations 0
time step continuity errors : sum local = 0, global = 0, cumulative = 0
DILUPBiCGStab:  Solving for omega, Initial residual = 7.28187e-05, Final residual = 2.28677e-07, No Iterations 1
DILUPBiCGStab:  Solving for k, Initial residual = 0.00477374, Final residual = 1.57952e-05, No Iterations 1
ExecutionTime = 2.86267 s  ClockTime = 3 s

Courant Number mean: 0 max: 0
Time = 17.5s

DICPCG:  Solving for w, Initial residual = 0.0123198, Final residual = 5.99663e-12, No Iterations 1
Global Volume-Averaged Solid Fraction (Gs) = 0.0206379
DICPCG:  Solving for T, Initial residual = 0.00874786, Final residual = 0.000105303, No Iterations 1
GAMG:  Solving for p_rgh, Initial residual = 0, Final residual = 0, No Iterations 0
time step continuity errors : sum local = 0, global = 0, cumulative = 0
DILUPBiCGStab:  Solving for omega, Initial residual = 7.14375e-05, Final residual = 2.22583e-07, No Iterations 1
DILUPBiCGStab:  Solving for k, Initial residual = 0.00486321, Final residual = 1.57887e-05, No Iterations 1
ExecutionTime = 2.92973 s  ClockTime = 3 s

Courant Number mean: 0 max: 0
Time = 18s

DICPCG:  Solving for w, Initial residual = 0.0129736, Final residual = 6.31366e-12, No Iterations 1
Global Volume-Averaged Solid Fraction (Gs) = 0.0200307
DICPCG:  Solving for T, Initial residual = 0.00633888, Final residual = 8.39213e-05, No Iterations 1
GAMG:  Solving for p_rgh, Initial residual = 0, Final residual = 0, No Iterations 0
time step continuity errors : sum local = 0, global = 0, cumulative = 0
DILUPBiCGStab:  Solving for omega, Initial residual = 7.0028e-05, Final residual = 2.16496e-07, No Iterations 1
DILUPBiCGStab:  Solving for k, Initial residual = 0.00494926, Final residual = 1.57631e-05, No Iterations 1
ExecutionTime = 2.99577 s  ClockTime = 3 s

Courant Number mean: 0 max: 0
Time = 18.5s

DICPCG:  Solving for w, Initial residual = 0.0108218, Final residual = 5.27882e-12, No Iterations 1
Global Volume-Averaged Solid Fraction (Gs) = 0.0199714
DICPCG:  Solving for T, Initial residual = 0.0318536, Final residual = 0.000275574, No Iterations 1
GAMG:  Solving for p_rgh, Initial residual = 0, Final residual = 0, No Iterations 0
time step continuity errors : sum local = 0, global = 0, cumulative = 0
DILUPBiCGStab:  Solving for omega, Initial residual = 6.86158e-05, Final residual = 2.10569e-07, No Iterations 1
DILUPBiCGStab:  Solving for k, Initial residual = 0.00503891, Final residual = 1.57485e-05, No Iterations 1
ExecutionTime = 3.06536 s  ClockTime = 3 s

Courant Number mean: 0 max: 0
Time = 19s

DICPCG:  Solving for w, Initial residual = 0.0114734, Final residual = 5.58527e-12, No Iterations 1
Global Volume-Averaged Solid Fraction (Gs) = 0.0206039
DICPCG:  Solving for T, Initial residual = 0.0163991, Final residual = 0.000112585, No Iterations 1
GAMG:  Solving for p_rgh, Initial residual = 0, Final residual = 0, No Iterations 0
time step continuity errors : sum local = 0, global = 0, cumulative = 0
DILUPBiCGStab:  Solving for omega, Initial residual = 6.72099e-05, Final residual = 2.0483e-07, No Iterations 1
DILUPBiCGStab:  Solving for k, Initial residual = 0.00512935, Final residual = 1.57515e-05, No Iterations 1
ExecutionTime = 3.13699 s  ClockTime = 3 s

Courant Number mean: 0 max: 0
Time = 19.5s

DICPCG:  Solving for w, Initial residual = 0.0108348, Final residual = 5.27055e-12, No Iterations 1
Global Volume-Averaged Solid Fraction (Gs) = 0.0208852
DICPCG:  Solving for T, Initial residual = 0.00841094, Final residual = 0.000100533, No Iterations 1
GAMG:  Solving for p_rgh, Initial residual = 0, Final residual = 0, No Iterations 0
time step continuity errors : sum local = 0, global = 0, cumulative = 0
DILUPBiCGStab:  Solving for omega, Initial residual = 6.57783e-05, Final residual = 1.99146e-07, No Iterations 1
DILUPBiCGStab:  Solving for k, Initial residual = 0.00521577, Final residual = 1.57307e-05, No Iterations 1
ExecutionTime = 3.2044 s  ClockTime = 3 s

Courant Number mean: 0 max: 0
Time = 20s

DICPCG:  Solving for w, Initial residual = 0.0117577, Final residual = 5.71923e-12, No Iterations 1
Global Volume-Averaged Solid Fraction (Gs) = 0.0203133
DICPCG:  Solving for T, Initial residual = 0.00603939, Final residual = 8.0655e-05, No Iterations 1
GAMG:  Solving for p_rgh, Initial residual = 0, Final residual = 0, No Iterations 0
time step continuity errors : sum local = 0, global = 0, cumulative = 0
DILUPBiCGStab:  Solving for omega, Initial residual = 6.4352e-05, Final residual = 1.93662e-07, No Iterations 1
DILUPBiCGStab:  Solving for k, Initial residual = 0.00530583, Final residual = 1.57263e-05, No Iterations 1
ExecutionTime = 3.37136 s  ClockTime = 3 s

Courant Number mean: 0 max: 0
Time = 20.5s

DICPCG:  Solving for w, Initial residual = 0.0100586, Final residual = 4.90053e-12, No Iterations 1
Global Volume-Averaged Solid Fraction (Gs) = 0.019979
DICPCG:  Solving for T, Initial residual = 0.0310187, Final residual = 0.000268192, No Iterations 1
GAMG:  Solving for p_rgh, Initial residual = 0, Final residual = 0, No Iterations 0
time step continuity errors : sum local = 0, global = 0, cumulative = 0
DILUPBiCGStab:  Solving for omega, Initial residual = 6.29357e-05, Final residual = 1.88387e-07, No Iterations 1
DILUPBiCGStab:  Solving for k, Initial residual = 0.00539658, Final residual = 1.57421e-05, No Iterations 1
ExecutionTime = 3.43826 s  ClockTime = 4 s

Courant Number mean: 0 max: 0
Time = 21s

DICPCG:  Solving for w, Initial residual = 0.0100934, Final residual = 4.93158e-12, No Iterations 1
Global Volume-Averaged Solid Fraction (Gs) = 0.02092
DICPCG:  Solving for T, Initial residual = 0.0159017, Final residual = 0.000107918, No Iterations 1
GAMG:  Solving for p_rgh, Initial residual = 0, Final residual = 0, No Iterations 0
time step continuity errors : sum local = 0, global = 0, cumulative = 0
DILUPBiCGStab:  Solving for omega, Initial residual = 6.14955e-05, Final residual = 1.83218e-07, No Iterations 1
DILUPBiCGStab:  Solving for k, Initial residual = 0.00548295, Final residual = 1.57338e-05, No Iterations 1
ExecutionTime = 3.50621 s  ClockTime = 4 s

Courant Number mean: 0 max: 0
Time = 21.5s

DICPCG:  Solving for w, Initial residual = 0.00989187, Final residual = 4.81265e-12, No Iterations 1
Global Volume-Averaged Solid Fraction (Gs) = 0.0212085
DICPCG:  Solving for T, Initial residual = 0.00813194, Final residual = 9.67684e-05, No Iterations 1
GAMG:  Solving for p_rgh, Initial residual = 0, Final residual = 0, No Iterations 0
time step continuity errors : sum local = 0, global = 0, cumulative = 0
DILUPBiCGStab:  Solving for omega, Initial residual = 6.00684e-05, Final residual = 1.78186e-07, No Iterations 1
DILUPBiCGStab:  Solving for k, Initial residual = 0.00557283, Final residual = 1.57348e-05, No Iterations 1
ExecutionTime = 3.57473 s  ClockTime = 4 s

Courant Number mean: 0 max: 0
Time = 22s

DICPCG:  Solving for w, Initial residual = 0.00994994, Final residual = 4.84615e-12, No Iterations 1
Global Volume-Averaged Solid Fraction (Gs) = 0.0206561
DICPCG:  Solving for T, Initial residual = 0.00581511, Final residual = 7.80539e-05, No Iterations 1
GAMG:  Solving for p_rgh, Initial residual = 0, Final residual = 0, No Iterations 0
time step continuity errors : sum local = 0, global = 0, cumulative = 0
DILUPBiCGStab:  Solving for omega, Initial residual = 5.86292e-05, Final residual = 1.73203e-07, No Iterations 1
DILUPBiCGStab:  Solving for k, Initial residual = 0.0056588, Final residual = 1.57302e-05, No Iterations 1
ExecutionTime = 3.64288 s  ClockTime = 4 s

Courant Number mean: 0 max: 0
Time = 22.5s

DICPCG:  Solving for w, Initial residual = 0.00994523, Final residual = 4.84818e-12, No Iterations 1
Global Volume-Averaged Solid Fraction (Gs) = 0.0200194
DICPCG:  Solving for T, Initial residual = 0.00493977, Final residual = 6.31793e-05, No Iterations 1
GAMG:  Solving for p_rgh, Initial residual = 0, Final residual = 0, No Iterations 0
time step continuity errors : sum local = 0, global = 0, cumulative = 0
DILUPBiCGStab:  Solving for omega, Initial residual = 5.72097e-05, Final residual = 1.68371e-07, No Iterations 1
DILUPBiCGStab:  Solving for k, Initial residual = 0.00574871, Final residual = 1.57425e-05, No Iterations 1
ExecutionTime = 3.71091 s  ClockTime = 4 s

Courant Number mean: 0 max: 0
Time = 23s

DICPCG:  Solving for w, Initial residual = 0.00910397, Final residual = 4.43543e-12, No Iterations 1
Global Volume-Averaged Solid Fraction (Gs) = 0.0200091
DICPCG:  Solving for T, Initial residual = 0.0314243, Final residual = 0.000266671, No Iterations 1
GAMG:  Solving for p_rgh, Initial residual = 0, Final residual = 0, No Iterations 0
time step continuity errors : sum local = 0, global = 0, cumulative = 0
DILUPBiCGStab:  Solving for omega, Initial residual = 5.57775e-05, Final residual = 1.63613e-07, No Iterations 1
DILUPBiCGStab:  Solving for k, Initial residual = 0.00583419, Final residual = 1.57423e-05, No Iterations 1
ExecutionTime = 3.77937 s  ClockTime = 4 s

Courant Number mean: 0 max: 0
Time = 23.5s

DICPCG:  Solving for w, Initial residual = 0.00905933, Final residual = 4.41299e-12, No Iterations 1
Global Volume-Averaged Solid Fraction (Gs) = 0.0208806
DICPCG:  Solving for T, Initial residual = 0.0153119, Final residual = 0.000100433, No Iterations 1
GAMG:  Solving for p_rgh, Initial residual = 0, Final residual = 0, No Iterations 0
time step continuity errors : sum local = 0, global = 0, cumulative = 0
DILUPBiCGStab:  Solving for omega, Initial residual = 5.4374e-05, Final residual = 1.58945e-07, No Iterations 1
DILUPBiCGStab:  Solving for k, Initial residual = 0.00592363, Final residual = 1.57565e-05, No Iterations 1
ExecutionTime = 3.84737 s  ClockTime = 4 s

Courant Number mean: 0 max: 0
Time = 24s

DICPCG:  Solving for w, Initial residual = 0.00942845, Final residual = 4.592e-12, No Iterations 1
Global Volume-Averaged Solid Fraction (Gs) = 0.0212443
DICPCG:  Solving for T, Initial residual = 0.00773305, Final residual = 9.08855e-05, No Iterations 1
GAMG:  Solving for p_rgh, Initial residual = 0, Final residual = 0, No Iterations 0
time step continuity errors : sum local = 0, global = 0, cumulative = 0
DILUPBiCGStab:  Solving for omega, Initial residual = 5.29602e-05, Final residual = 1.54772e-07, No Iterations 1
DILUPBiCGStab:  Solving for k, Initial residual = 0.00600828, Final residual = 1.57609e-05, No Iterations 1
ExecutionTime = 3.91577 s  ClockTime = 4 s

Courant Number mean: 0 max: 0
Time = 24.5s

DICPCG:  Solving for w, Initial residual = 0.00882805, Final residual = 4.28612e-12, No Iterations 1
Global Volume-Averaged Solid Fraction (Gs) = 0.0207551
DICPCG:  Solving for T, Initial residual = 0.00544496, Final residual = 7.38669e-05, No Iterations 1
GAMG:  Solving for p_rgh, Initial residual = 0, Final residual = 0, No Iterations 0
time step continuity errors : sum local = 0, global = 0, cumulative = 0
DILUPBiCGStab:  Solving for omega, Initial residual = 5.15744e-05, Final residual = 1.49921e-07, No Iterations 1
DILUPBiCGStab:  Solving for k, Initial residual = 0.00609694, Final residual = 1.57805e-05, No Iterations 1
ExecutionTime = 3.97999 s  ClockTime = 4 s

Courant Number mean: 0 max: 0
Time = 25s

DICPCG:  Solving for w, Initial residual = 0.00856539, Final residual = 4.17631e-12, No Iterations 1
Global Volume-Averaged Solid Fraction (Gs) = 0.0201701
DICPCG:  Solving for T, Initial residual = 0.00461208, Final residual = 5.96755e-05, No Iterations 1
GAMG:  Solving for p_rgh, Initial residual = 0, Final residual = 0, No Iterations 0
time step continuity errors : sum local = 0, global = 0, cumulative = 0
DILUPBiCGStab:  Solving for omega, Initial residual = 5.0149e-05, Final residual = 1.46501e-07, No Iterations 1
DILUPBiCGStab:  Solving for k, Initial residual = 0.00617601, Final residual = 1.57616e-05, No Iterations 1
ExecutionTime = 4.13762 s  ClockTime = 4 s

Courant Number mean: 0 max: 0
Time = 25.5s

DICPCG:  Solving for w, Initial residual = 0.00871356, Final residual = 4.25369e-12, No Iterations 1
Global Volume-Averaged Solid Fraction (Gs) = 0.0200133
DICPCG:  Solving for T, Initial residual = 0.0308851, Final residual = 0.000261933, No Iterations 1
GAMG:  Solving for p_rgh, Initial residual = 0, Final residual = 0, No Iterations 0
time step continuity errors : sum local = 0, global = 0, cumulative = 0
DILUPBiCGStab:  Solving for omega, Initial residual = 4.87342e-05, Final residual = 1.41833e-07, No Iterations 1
DILUPBiCGStab:  Solving for k, Initial residual = 0.00625602, Final residual = 1.57393e-05, No Iterations 1
ExecutionTime = 4.20242 s  ClockTime = 4 s

Courant Number mean: 0 max: 0
Time = 26s

DICPCG:  Solving for w, Initial residual = 0.00778033, Final residual = 3.79849e-12, No Iterations 1
Global Volume-Averaged Solid Fraction (Gs) = 0.0210954
DICPCG:  Solving for T, Initial residual = 0.0149193, Final residual = 9.58477e-05, No Iterations 1
GAMG:  Solving for p_rgh, Initial residual = 0, Final residual = 0, No Iterations 0
time step continuity errors : sum local = 0, global = 0, cumulative = 0
DILUPBiCGStab:  Solving for omega, Initial residual = 4.73834e-05, Final residual = 1.37622e-07, No Iterations 1
DILUPBiCGStab:  Solving for k, Initial residual = 0.00634415, Final residual = 1.57712e-05, No Iterations 1
ExecutionTime = 4.26706 s  ClockTime = 4 s

Courant Number mean: 0 max: 0
Time = 26.5s

DICPCG:  Solving for w, Initial residual = 0.00804172, Final residual = 3.9121e-12, No Iterations 1
Global Volume-Averaged Solid Fraction (Gs) = 0.0214753
DICPCG:  Solving for T, Initial residual = 0.00748885, Final residual = 8.6754e-05, No Iterations 1
GAMG:  Solving for p_rgh, Initial residual = 0, Final residual = 0, No Iterations 0
time step continuity errors : sum local = 0, global = 0, cumulative = 0
DILUPBiCGStab:  Solving for omega, Initial residual = 4.60563e-05, Final residual = 1.33664e-07, No Iterations 1
DILUPBiCGStab:  Solving for k, Initial residual = 0.00643274, Final residual = 1.58228e-05, No Iterations 1
ExecutionTime = 4.33416 s  ClockTime = 4 s

Courant Number mean: 0 max: 0
Time = 27s

DICPCG:  Solving for w, Initial residual = 0.00833941, Final residual = 4.06205e-12, No Iterations 1
Global Volume-Averaged Solid Fraction (Gs) = 0.0210098
DICPCG:  Solving for T, Initial residual = 0.00522184, Final residual = 7.11355e-05, No Iterations 1
GAMG:  Solving for p_rgh, Initial residual = 0, Final residual = 0, No Iterations 0
time step continuity errors : sum local = 0, global = 0, cumulative = 0
DILUPBiCGStab:  Solving for omega, Initial residual = 4.47407e-05, Final residual = 1.29818e-07, No Iterations 1
DILUPBiCGStab:  Solving for k, Initial residual = 0.00652046, Final residual = 1.58723e-05, No Iterations 1
ExecutionTime = 4.40205 s  ClockTime = 4 s

Courant Number mean: 0 max: 0
Time = 27.5s

DICPCG:  Solving for w, Initial residual = 0.00793781, Final residual = 3.86532e-12, No Iterations 1
Global Volume-Averaged Solid Fraction (Gs) = 0.0204473
DICPCG:  Solving for T, Initial residual = 0.00440151, Final residual = 5.76124e-05, No Iterations 1
GAMG:  Solving for p_rgh, Initial residual = 0, Final residual = 0, No Iterations 0
time step continuity errors : sum local = 0, global = 0, cumulative = 0
DILUPBiCGStab:  Solving for omega, Initial residual = 4.34372e-05, Final residual = 1.26091e-07, No Iterations 1
DILUPBiCGStab:  Solving for k, Initial residual = 0.00660726, Final residual = 1.59204e-05, No Iterations 1
ExecutionTime = 4.46762 s  ClockTime = 5 s

Courant Number mean: 0 max: 0
Time = 28s

DICPCG:  Solving for w, Initial residual = 0.00696672, Final residual = 3.40087e-12, No Iterations 1
Global Volume-Averaged Solid Fraction (Gs) = 0.0200203
DICPCG:  Solving for T, Initial residual = 0.0301915, Final residual = 0.000255783, No Iterations 1
GAMG:  Solving for p_rgh, Initial residual = 0, Final residual = 0, No Iterations 0
time step continuity errors : sum local = 0, global = 0, cumulative = 0
DILUPBiCGStab:  Solving for omega, Initial residual = 4.21469e-05, Final residual = 1.22468e-07, No Iterations 1
DILUPBiCGStab:  Solving for k, Initial residual = 0.00669311, Final residual = 1.59676e-05, No Iterations 1
ExecutionTime = 4.53217 s  ClockTime = 5 s

Courant Number mean: 0 max: 0
Time = 28.5s

DICPCG:  Solving for w, Initial residual = 0.00749754, Final residual = 3.69258e-12, No Iterations 1
Global Volume-Averaged Solid Fraction (Gs) = 0.0213835
DICPCG:  Solving for T, Initial residual = 0.0145503, Final residual = 9.21475e-05, No Iterations 1
GAMG:  Solving for p_rgh, Initial residual = 0, Final residual = 0, No Iterations 0
time step continuity errors : sum local = 0, global = 0, cumulative = 0
DILUPBiCGStab:  Solving for omega, Initial residual = 4.08716e-05, Final residual = 1.18955e-07, No Iterations 1
DILUPBiCGStab:  Solving for k, Initial residual = 0.00677797, Final residual = 1.60134e-05, No Iterations 1
ExecutionTime = 4.59892 s  ClockTime = 5 s

Courant Number mean: 0 max: 0
Time = 29s

DICPCG:  Solving for w, Initial residual = 0.00736581, Final residual = 3.62217e-12, No Iterations 1
Global Volume-Averaged Solid Fraction (Gs) = 0.0217656
DICPCG:  Solving for T, Initial residual = 0.00727432, Final residual = 8.3411e-05, No Iterations 1
GAMG:  Solving for p_rgh, Initial residual = 0, Final residual = 0, No Iterations 0
time step continuity errors : sum local = 0, global = 0, cumulative = 0
DILUPBiCGStab:  Solving for omega, Initial residual = 3.96184e-05, Final residual = 1.15595e-07, No Iterations 1
DILUPBiCGStab:  Solving for k, Initial residual = 0.0068618, Final residual = 1.60581e-05, No Iterations 1
ExecutionTime = 4.66657 s  ClockTime = 5 s

Courant Number mean: 0 max: 0
Time = 29.5s

DICPCG:  Solving for w, Initial residual = 0.0078455, Final residual = 3.85169e-12, No Iterations 1
Global Volume-Averaged Solid Fraction (Gs) = 0.0213142
DICPCG:  Solving for T, Initial residual = 0.00504283, Final residual = 6.87964e-05, No Iterations 1
GAMG:  Solving for p_rgh, Initial residual = 0, Final residual = 0, No Iterations 0
time step continuity errors : sum local = 0, global = 0, cumulative = 0
DILUPBiCGStab:  Solving for omega, Initial residual = 3.83796e-05, Final residual = 1.1235e-07, No Iterations 1
DILUPBiCGStab:  Solving for k, Initial residual = 0.00694457, Final residual = 1.61024e-05, No Iterations 1
ExecutionTime = 4.73548 s  ClockTime = 5 s

Courant Number mean: 0 max: 0
Time = 30s

DICPCG:  Solving for w, Initial residual = 0.00634952, Final residual = 3.13178e-12, No Iterations 1
Global Volume-Averaged Solid Fraction (Gs) = 0.0207662
DICPCG:  Solving for T, Initial residual = 0.00423803, Final residual = 5.59278e-05, No Iterations 1
GAMG:  Solving for p_rgh, Initial residual = 0, Final residual = 0, No Iterations 0
time step continuity errors : sum local = 0, global = 0, cumulative = 0
DILUPBiCGStab:  Solving for omega, Initial residual = 3.71562e-05, Final residual = 1.09275e-07, No Iterations 1
DILUPBiCGStab:  Solving for k, Initial residual = 0.00702616, Final residual = 1.61459e-05, No Iterations 1
ExecutionTime = 4.89611 s  ClockTime = 5 s

Courant Number mean: 0 max: 0
Time = 30.5s

DICPCG:  Solving for w, Initial residual = 0.00637175, Final residual = 3.14232e-12, No Iterations 1
Global Volume-Averaged Solid Fraction (Gs) = 0.0202834
DICPCG:  Solving for T, Initial residual = 0.00385693, Final residual = 4.56067e-05, No Iterations 1
GAMG:  Solving for p_rgh, Initial residual = 0, Final residual = 0, No Iterations 0
time step continuity errors : sum local = 0, global = 0, cumulative = 0
DILUPBiCGStab:  Solving for omega, Initial residual = 3.59492e-05, Final residual = 1.0634e-07, No Iterations 1
DILUPBiCGStab:  Solving for k, Initial residual = 0.00710664, Final residual = 1.61881e-05, No Iterations 1
ExecutionTime = 4.96245 s  ClockTime = 5 s

Courant Number mean: 0 max: 0
Time = 31s

DICPCG:  Solving for w, Initial residual = 0.00672175, Final residual = 3.31064e-12, No Iterations 1
Global Volume-Averaged Solid Fraction (Gs) = 0.0200272
DICPCG:  Solving for T, Initial residual = 0.0302713, Final residual = 0.000253888, No Iterations 1
GAMG:  Solving for p_rgh, Initial residual = 0, Final residual = 0, No Iterations 0
time step continuity errors : sum local = 0, global = 0, cumulative = 0
DILUPBiCGStab:  Solving for omega, Initial residual = 3.47594e-05, Final residual = 1.03501e-07, No Iterations 1
DILUPBiCGStab:  Solving for k, Initial residual = 0.00718595, Final residual = 1.62291e-05, No Iterations 1
ExecutionTime = 5.03163 s  ClockTime = 5 s

Courant Number mean: 0 max: 0
Time = 31.5s

DICPCG:  Solving for w, Initial residual = 0.00700615, Final residual = 3.44795e-12, No Iterations 1
Global Volume-Averaged Solid Fraction (Gs) = 0.0214151
DICPCG:  Solving for T, Initial residual = 0.014133, Final residual = 8.63802e-05, No Iterations 1
GAMG:  Solving for p_rgh, Initial residual = 0, Final residual = 0, No Iterations 0
time step continuity errors : sum local = 0, global = 0, cumulative = 0
DILUPBiCGStab:  Solving for omega, Initial residual = 3.35862e-05, Final residual = 1.00753e-07, No Iterations 1
DILUPBiCGStab:  Solving for k, Initial residual = 0.00726404, Final residual = 1.6269e-05, No Iterations 1
ExecutionTime = 5.10721 s  ClockTime = 5 s

Courant Number mean: 0 max: 0
Time = 32s

DICPCG:  Solving for w, Initial residual = 0.00610666, Final residual = 3.00962e-12, No Iterations 1
Global Volume-Averaged Solid Fraction (Gs) = 0.0218466
DICPCG:  Solving for T, Initial residual = 0.00697895, Final residual = 7.82308e-05, No Iterations 1
GAMG:  Solving for p_rgh, Initial residual = 0, Final residual = 0, No Iterations 0
time step continuity errors : sum local = 0, global = 0, cumulative = 0
DILUPBiCGStab:  Solving for omega, Initial residual = 3.243e-05, Final residual = 9.81018e-08, No Iterations 1
DILUPBiCGStab:  Solving for k, Initial residual = 0.00734084, Final residual = 1.63087e-05, No Iterations 1
ExecutionTime = 5.17373 s  ClockTime = 5 s

Courant Number mean: 0 max: 0
Time = 32.5s

DICPCG:  Solving for w, Initial residual = 0.00649123, Final residual = 3.20243e-12, No Iterations 1
Global Volume-Averaged Solid Fraction (Gs) = 0.0214388
DICPCG:  Solving for T, Initial residual = 0.00475834, Final residual = 6.52671e-05, No Iterations 1
GAMG:  Solving for p_rgh, Initial residual = 0, Final residual = 0, No Iterations 0
time step continuity errors : sum local = 0, global = 0, cumulative = 0
DILUPBiCGStab:  Solving for omega, Initial residual = 3.12912e-05, Final residual = 9.55998e-08, No Iterations 1
DILUPBiCGStab:  Solving for k, Initial residual = 0.0074162, Final residual = 1.63472e-05, No Iterations 1
ExecutionTime = 5.23896 s  ClockTime = 5 s

Courant Number mean: 0 max: 0
Time = 33s

DICPCG:  Solving for w, Initial residual = 0.00618345, Final residual = 3.04678e-12, No Iterations 1
Global Volume-Averaged Solid Fraction (Gs) = 0.0209273
DICPCG:  Solving for T, Initial residual = 0.00397462, Final residual = 5.30649e-05, No Iterations 1
GAMG:  Solving for p_rgh, Initial residual = 0, Final residual = 0, No Iterations 0
time step continuity errors : sum local = 0, global = 0, cumulative = 0
DILUPBiCGStab:  Solving for omega, Initial residual = 3.01708e-05, Final residual = 9.3274e-08, No Iterations 1
DILUPBiCGStab:  Solving for k, Initial residual = 0.00748999, Final residual = 1.6384e-05, No Iterations 1
ExecutionTime = 5.30575 s  ClockTime = 5 s

Courant Number mean: 0 max: 0
Time = 33.5s

DICPCG:  Solving for w, Initial residual = 0.00634997, Final residual = 3.12535e-12, No Iterations 1
Global Volume-Averaged Solid Fraction (Gs) = 0.0204746
DICPCG:  Solving for T, Initial residual = 0.00361842, Final residual = 4.32027e-05, No Iterations 1
GAMG:  Solving for p_rgh, Initial residual = 0, Final residual = 0, No Iterations 0
time step continuity errors : sum local = 0, global = 0, cumulative = 0
DILUPBiCGStab:  Solving for omega, Initial residual = 2.90692e-05, Final residual = 9.10685e-08, No Iterations 1
DILUPBiCGStab:  Solving for k, Initial residual = 0.00756247, Final residual = 1.64199e-05, No Iterations 1
ExecutionTime = 5.37666 s  ClockTime = 5 s

Courant Number mean: 0 max: 0
Time = 34s

DICPCG:  Solving for w, Initial residual = 0.00598547, Final residual = 2.94468e-12, No Iterations 1
Global Volume-Averaged Solid Fraction (Gs) = 0.0200993
DICPCG:  Solving for T, Initial residual = 0.00339135, Final residual = 3.57985e-05, No Iterations 1
GAMG:  Solving for p_rgh, Initial residual = 0, Final residual = 0, No Iterations 0
time step continuity errors : sum local = 0, global = 0, cumulative = 0
DILUPBiCGStab:  Solving for omega, Initial residual = 2.79863e-05, Final residual = 8.89564e-08, No Iterations 1
DILUPBiCGStab:  Solving for k, Initial residual = 0.00763361, Final residual = 1.64548e-05, No Iterations 1
ExecutionTime = 5.44201 s  ClockTime = 6 s

Courant Number mean: 0 max: 0
Time = 34.5s

DICPCG:  Solving for w, Initial residual = 0.0062637, Final residual = 3.08589e-12, No Iterations 1
Global Volume-Averaged Solid Fraction (Gs) = 0.0200264
DICPCG:  Solving for T, Initial residual = 0.0303597, Final residual = 0.000253173, No Iterations 1
GAMG:  Solving for p_rgh, Initial residual = 0, Final residual = 0, No Iterations 0
time step continuity errors : sum local = 0, global = 0, cumulative = 0
DILUPBiCGStab:  Solving for omega, Initial residual = 2.69229e-05, Final residual = 8.6927e-08, No Iterations 1
DILUPBiCGStab:  Solving for k, Initial residual = 0.00770333, Final residual = 1.6489e-05, No Iterations 1
ExecutionTime = 5.50457 s  ClockTime = 6 s

Courant Number mean: 0 max: 0
Time = 35s

DICPCG:  Solving for w, Initial residual = 0.00609132, Final residual = 2.99587e-12, No Iterations 1
Global Volume-Averaged Solid Fraction (Gs) = 0.021413
DICPCG:  Solving for T, Initial residual = 0.0138022, Final residual = 8.06986e-05, No Iterations 1
GAMG:  Solving for p_rgh, Initial residual = 0, Final residual = 0, No Iterations 0
time step continuity errors : sum local = 0, global = 0, cumulative = 0
DILUPBiCGStab:  Solving for omega, Initial residual = 2.58888e-05, Final residual = 8.5045e-08, No Iterations 1
DILUPBiCGStab:  Solving for k, Initial residual = 0.00777142, Final residual = 1.65216e-05, No Iterations 1
ExecutionTime = 5.66467 s  ClockTime = 6 s

Courant Number mean: 0 max: 0
Time = 35.5s

DICPCG:  Solving for w, Initial residual = 0.00585822, Final residual = 2.89592e-12, No Iterations 1
Global Volume-Averaged Solid Fraction (Gs) = 0.0218909
DICPCG:  Solving for T, Initial residual = 0.00671612, Final residual = 7.27174e-05, No Iterations 1
GAMG:  Solving for p_rgh, Initial residual = 0, Final residual = 0, No Iterations 0
time step continuity errors : sum local = 0, global = 0, cumulative = 0
DILUPBiCGStab:  Solving for omega, Initial residual = 2.48747e-05, Final residual = 8.32744e-08, No Iterations 1
DILUPBiCGStab:  Solving for k, Initial residual = 0.00783792, Final residual = 1.6553e-05, No Iterations 1
ExecutionTime = 5.73104 s  ClockTime = 6 s

Courant Number mean: 0 max: 0
Time = 36s

DICPCG:  Solving for w, Initial residual = 0.00563787, Final residual = 2.77662e-12, No Iterations 1
Global Volume-Averaged Solid Fraction (Gs) = 0.0215239
DICPCG:  Solving for T, Initial residual = 0.00447774, Final residual = 6.15986e-05, No Iterations 1
GAMG:  Solving for p_rgh, Initial residual = 0, Final residual = 0, No Iterations 0
time step continuity errors : sum local = 0, global = 0, cumulative = 0
DILUPBiCGStab:  Solving for omega, Initial residual = 2.38802e-05, Final residual = 8.15888e-08, No Iterations 1
DILUPBiCGStab:  Solving for k, Initial residual = 0.00790299, Final residual = 1.65836e-05, No Iterations 1
ExecutionTime = 5.79592 s  ClockTime = 6 s

Courant Number mean: 0 max: 0
Time = 36.5s

DICPCG:  Solving for w, Initial residual = 0.00566691, Final residual = 2.7885e-12, No Iterations 1
Global Volume-Averaged Solid Fraction (Gs) = 0.0210476
DICPCG:  Solving for T, Initial residual = 0.00369811, Final residual = 5.01436e-05, No Iterations 1
GAMG:  Solving for p_rgh, Initial residual = 0, Final residual = 0, No Iterations 0
time step continuity errors : sum local = 0, global = 0, cumulative = 0
DILUPBiCGStab:  Solving for omega, Initial residual = 2.29058e-05, Final residual = 7.9989e-08, No Iterations 1
DILUPBiCGStab:  Solving for k, Initial residual = 0.00796662, Final residual = 1.66134e-05, No Iterations 1
ExecutionTime = 5.86528 s  ClockTime = 6 s

Courant Number mean: 0 max: 0
Time = 37s

DICPCG:  Solving for w, Initial residual = 0.00574852, Final residual = 2.87884e-12, No Iterations 1
Global Volume-Averaged Solid Fraction (Gs) = 0.0206248
DICPCG:  Solving for T, Initial residual = 0.0033649, Final residual = 4.07439e-05, No Iterations 1
GAMG:  Solving for p_rgh, Initial residual = 0, Final residual = 0, No Iterations 0
time step continuity errors : sum local = 0, global = 0, cumulative = 0
DILUPBiCGStab:  Solving for omega, Initial residual = 2.1952e-05, Final residual = 7.85056e-08, No Iterations 1
DILUPBiCGStab:  Solving for k, Initial residual = 0.0080288, Final residual = 1.66427e-05, No Iterations 1
ExecutionTime = 5.93201 s  ClockTime = 6 s

Courant Number mean: 0 max: 0
Time = 37.5s

DICPCG:  Solving for w, Initial residual = 0.00472537, Final residual = 2.37437e-12, No Iterations 1
Global Volume-Averaged Solid Fraction (Gs) = 0.0202751
DICPCG:  Solving for T, Initial residual = 0.0031468, Final residual = 3.36299e-05, No Iterations 1
GAMG:  Solving for p_rgh, Initial residual = 0, Final residual = 0, No Iterations 0
time step continuity errors : sum local = 0, global = 0, cumulative = 0
DILUPBiCGStab:  Solving for omega, Initial residual = 2.10185e-05, Final residual = 7.7144e-08, No Iterations 1
DILUPBiCGStab:  Solving for k, Initial residual = 0.00808951, Final residual = 1.66715e-05, No Iterations 1
ExecutionTime = 5.99668 s  ClockTime = 6 s

Courant Number mean: 0 max: 0
Time = 38s

DICPCG:  Solving for w, Initial residual = 0.00484788, Final residual = 2.43167e-12, No Iterations 1
Global Volume-Averaged Solid Fraction (Gs) = 0.0200311
DICPCG:  Solving for T, Initial residual = 0.0297367, Final residual = 0.00024798, No Iterations 1
GAMG:  Solving for p_rgh, Initial residual = 0, Final residual = 0, No Iterations 0
time step continuity errors : sum local = 0, global = 0, cumulative = 0
DILUPBiCGStab:  Solving for omega, Initial residual = 2.01058e-05, Final residual = 7.58725e-08, No Iterations 1
DILUPBiCGStab:  Solving for k, Initial residual = 0.00814874, Final residual = 1.66998e-05, No Iterations 1
ExecutionTime = 6.06109 s  ClockTime = 6 s

Courant Number mean: 0 max: 0
Time = 38.5s

DICPCG:  Solving for w, Initial residual = 0.00509816, Final residual = 2.55595e-12, No Iterations 1
Global Volume-Averaged Solid Fraction (Gs) = 0.0216028
DICPCG:  Solving for T, Initial residual = 0.0136289, Final residual = 7.73818e-05, No Iterations 1
GAMG:  Solving for p_rgh, Initial residual = 0, Final residual = 0, No Iterations 0
time step continuity errors : sum local = 0, global = 0, cumulative = 0
DILUPBiCGStab:  Solving for omega, Initial residual = 1.92145e-05, Final residual = 7.46706e-08, No Iterations 1
DILUPBiCGStab:  Solving for k, Initial residual = 0.00820648, Final residual = 1.67277e-05, No Iterations 1
ExecutionTime = 6.13009 s  ClockTime = 6 s

Courant Number mean: 0 max: 0
Time = 39s

DICPCG:  Solving for w, Initial residual = 0.00524887, Final residual = 2.63132e-12, No Iterations 1
Global Volume-Averaged Solid Fraction (Gs) = 0.0220945
DICPCG:  Solving for T, Initial residual = 0.00658195, Final residual = 6.92802e-05, No Iterations 1
GAMG:  Solving for p_rgh, Initial residual = 0, Final residual = 0, No Iterations 0
time step continuity errors : sum local = 0, global = 0, cumulative = 0
DILUPBiCGStab:  Solving for omega, Initial residual = 1.83439e-05, Final residual = 7.35913e-08, No Iterations 1
DILUPBiCGStab:  Solving for k, Initial residual = 0.00826271, Final residual = 1.67555e-05, No Iterations 1
ExecutionTime = 6.19642 s  ClockTime = 6 s

Courant Number mean: 0 max: 0
Time = 39.5s

DICPCG:  Solving for w, Initial residual = 0.00490422, Final residual = 2.4599e-12, No Iterations 1
Global Volume-Averaged Solid Fraction (Gs) = 0.0217494
DICPCG:  Solving for T, Initial residual = 0.00431327, Final residual = 5.91152e-05, No Iterations 1
GAMG:  Solving for p_rgh, Initial residual = 0, Final residual = 0, No Iterations 0
time step continuity errors : sum local = 0, global = 0, cumulative = 0
DILUPBiCGStab:  Solving for omega, Initial residual = 1.74944e-05, Final residual = 7.27158e-08, No Iterations 1
DILUPBiCGStab:  Solving for k, Initial residual = 0.00831744, Final residual = 1.67835e-05, No Iterations 1
ExecutionTime = 6.26243 s  ClockTime = 6 s

Courant Number mean: 0 max: 0
Time = 40s

DICPCG:  Solving for w, Initial residual = 0.00512671, Final residual = 2.57684e-12, No Iterations 1
Global Volume-Averaged Solid Fraction (Gs) = 0.0212902
DICPCG:  Solving for T, Initial residual = 0.00352113, Final residual = 4.82641e-05, No Iterations 1
GAMG:  Solving for p_rgh, Initial residual = 0, Final residual = 0, No Iterations 0
time step continuity errors : sum local = 0, global = 0, cumulative = 0
DILUPBiCGStab:  Solving for omega, Initial residual = 1.66696e-05, Final residual = 7.19413e-08, No Iterations 1
DILUPBiCGStab:  Solving for k, Initial residual = 0.00837063, Final residual = 1.68116e-05, No Iterations 1
ExecutionTime = 6.42603 s  ClockTime = 7 s

Courant Number mean: 0 max: 0
Time = 40.5s

DICPCG:  Solving for w, Initial residual = 0.00453257, Final residual = 2.27133e-12, No Iterations 1
Global Volume-Averaged Solid Fraction (Gs) = 0.0208813
DICPCG:  Solving for T, Initial residual = 0.0031938, Final residual = 3.92768e-05, No Iterations 1
GAMG:  Solving for p_rgh, Initial residual = 0, Final residual = 0, No Iterations 0
time step continuity errors : sum local = 0, global = 0, cumulative = 0
DILUPBiCGStab:  Solving for omega, Initial residual = 1.58721e-05, Final residual = 7.12927e-08, No Iterations 1
DILUPBiCGStab:  Solving for k, Initial residual = 0.00842229, Final residual = 1.68393e-05, No Iterations 1
ExecutionTime = 6.49346 s  ClockTime = 7 s

Courant Number mean: 0 max: 0
Time = 41s

DICPCG:  Solving for w, Initial residual = 0.00501414, Final residual = 2.51096e-12, No Iterations 1
Global Volume-Averaged Solid Fraction (Gs) = 0.0205435
DICPCG:  Solving for T, Initial residual = 0.00297594, Final residual = 3.24569e-05, No Iterations 1
GAMG:  Solving for p_rgh, Initial residual = 0, Final residual = 0, No Iterations 0
time step continuity errors : sum local = 0, global = 0, cumulative = 0
DILUPBiCGStab:  Solving for omega, Initial residual = 1.5096e-05, Final residual = 7.08077e-08, No Iterations 1
DILUPBiCGStab:  Solving for k, Initial residual = 0.00847242, Final residual = 1.68666e-05, No Iterations 1
ExecutionTime = 6.56415 s  ClockTime = 7 s

Courant Number mean: 0 max: 0
Time = 41.5s

DICPCG:  Solving for w, Initial residual = 0.00502592, Final residual = 2.51483e-12, No Iterations 1
Global Volume-Averaged Solid Fraction (Gs) = 0.0202657
DICPCG:  Solving for T, Initial residual = 0.00283892, Final residual = 2.71143e-05, No Iterations 1
GAMG:  Solving for p_rgh, Initial residual = 0, Final residual = 0, No Iterations 0
time step continuity errors : sum local = 0, global = 0, cumulative = 0
DILUPBiCGStab:  Solving for omega, Initial residual = 1.43417e-05, Final residual = 7.03675e-08, No Iterations 1
DILUPBiCGStab:  Solving for k, Initial residual = 0.00852102, Final residual = 1.68936e-05, No Iterations 1
ExecutionTime = 6.63501 s  ClockTime = 7 s

Courant Number mean: 0 max: 0
Time = 42s

DICPCG:  Solving for w, Initial residual = 0.00464726, Final residual = 2.33127e-12, No Iterations 1
Global Volume-Averaged Solid Fraction (Gs) = 0.0200357
DICPCG:  Solving for T, Initial residual = 0.0231648, Final residual = 0.000198765, No Iterations 1
GAMG:  Solving for p_rgh, Initial residual = 0, Final residual = 0, No Iterations 0
time step continuity errors : sum local = 0, global = 0, cumulative = 0
DILUPBiCGStab:  Solving for omega, Initial residual = 1.36076e-05, Final residual = 6.98352e-08, No Iterations 1
DILUPBiCGStab:  Solving for k, Initial residual = 0.00856807, Final residual = 1.69203e-05, No Iterations 1
ExecutionTime = 6.70518 s  ClockTime = 7 s

Courant Number mean: 0 max: 0
Time = 42.5s

DICPCG:  Solving for w, Initial residual = 0.00422495, Final residual = 2.11685e-12, No Iterations 1
Global Volume-Averaged Solid Fraction (Gs) = 0.0212941
DICPCG:  Solving for T, Initial residual = 0.0173172, Final residual = 0.000118264, No Iterations 1
GAMG:  Solving for p_rgh, Initial residual = 0, Final residual = 0, No Iterations 0
time step continuity errors : sum local = 0, global = 0, cumulative = 0
DILUPBiCGStab:  Solving for omega, Initial residual = 1.28946e-05, Final residual = 6.92223e-08, No Iterations 1
DILUPBiCGStab:  Solving for k, Initial residual = 0.00861358, Final residual = 1.69468e-05, No Iterations 1
ExecutionTime = 6.77011 s  ClockTime = 7 s

Courant Number mean: 0 max: 0
Time = 43s

DICPCG:  Solving for w, Initial residual = 0.0047969, Final residual = 2.4008e-12, No Iterations 1
Global Volume-Averaged Solid Fraction (Gs) = 0.02206
DICPCG:  Solving for T, Initial residual = 0.00796224, Final residual = 6.65804e-05, No Iterations 1
GAMG:  Solving for p_rgh, Initial residual = 0, Final residual = 0, No Iterations 0
time step continuity errors : sum local = 0, global = 0, cumulative = 0
DILUPBiCGStab:  Solving for omega, Initial residual = 1.22027e-05, Final residual = 6.8472e-08, No Iterations 1
DILUPBiCGStab:  Solving for k, Initial residual = 0.00865756, Final residual = 1.6973e-05, No Iterations 1
ExecutionTime = 6.83568 s  ClockTime = 7 s

Courant Number mean: 0 max: 0
Time = 43.5s

DICPCG:  Solving for w, Initial residual = 0.00437154, Final residual = 2.19249e-12, No Iterations 1
Global Volume-Averaged Solid Fraction (Gs) = 0.0219434
DICPCG:  Solving for T, Initial residual = 0.00460777, Final residual = 5.98082e-05, No Iterations 1
GAMG:  Solving for p_rgh, Initial residual = 0, Final residual = 0, No Iterations 0
time step continuity errors : sum local = 0, global = 0, cumulative = 0
DILUPBiCGStab:  Solving for omega, Initial residual = 1.15312e-05, Final residual = 6.75649e-08, No Iterations 1
DILUPBiCGStab:  Solving for k, Initial residual = 0.00870001, Final residual = 1.6999e-05, No Iterations 1
ExecutionTime = 6.90448 s  ClockTime = 7 s

Courant Number mean: 0 max: 0
Time = 44s

DICPCG:  Solving for w, Initial residual = 0.00498417, Final residual = 2.49378e-12, No Iterations 1
Global Volume-Averaged Solid Fraction (Gs) = 0.0215389
DICPCG:  Solving for T, Initial residual = 0.00347713, Final residual = 4.86084e-05, No Iterations 1
GAMG:  Solving for p_rgh, Initial residual = 0, Final residual = 0, No Iterations 0
time step continuity errors : sum local = 0, global = 0, cumulative = 0
DILUPBiCGStab:  Solving for omega, Initial residual = 1.08843e-05, Final residual = 6.64886e-08, No Iterations 1
DILUPBiCGStab:  Solving for k, Initial residual = 0.00874093, Final residual = 1.70247e-05, No Iterations 1
ExecutionTime = 6.96919 s  ClockTime = 7 s

Courant Number mean: 0 max: 0
Time = 44.5s

DICPCG:  Solving for w, Initial residual = 0.00409286, Final residual = 2.05178e-12, No Iterations 1
Global Volume-Averaged Solid Fraction (Gs) = 0.0211425
DICPCG:  Solving for T, Initial residual = 0.00304499, Final residual = 3.95056e-05, No Iterations 1
GAMG:  Solving for p_rgh, Initial residual = 0, Final residual = 0, No Iterations 0
time step continuity errors : sum local = 0, global = 0, cumulative = 0
DILUPBiCGStab:  Solving for omega, Initial residual = 1.02648e-05, Final residual = 6.52257e-08, No Iterations 1
DILUPBiCGStab:  Solving for k, Initial residual = 0.00878032, Final residual = 1.70501e-05, No Iterations 1
ExecutionTime = 7.03307 s  ClockTime = 7 s

Courant Number mean: 0 max: 0
Time = 45s

DICPCG:  Solving for w, Initial residual = 0.00451429, Final residual = 2.2658e-12, No Iterations 1
Global Volume-Averaged Solid Fraction (Gs) = 0.0208088
DICPCG:  Solving for T, Initial residual = 0.00280425, Final residual = 3.23565e-05, No Iterations 1
GAMG:  Solving for p_rgh, Initial residual = 0, Final residual = 0, No Iterations 0
time step continuity errors : sum local = 0, global = 0, cumulative = 0
DILUPBiCGStab:  Solving for omega, Initial residual = 9.66492e-06, Final residual = 6.37649e-08, No Iterations 1
DILUPBiCGStab:  Solving for k, Initial residual = 0.0088182, Final residual = 1.70752e-05, No Iterations 1
ExecutionTime = 7.1943 s  ClockTime = 7 s

Courant Number mean: 0 max: 0
Time = 45.5s

DICPCG:  Solving for w, Initial residual = 0.00417217, Final residual = 2.09972e-12, No Iterations 1
Global Volume-Averaged Solid Fraction (Gs) = 0.0205349
DICPCG:  Solving for T, Initial residual = 0.00265713, Final residual = 2.68227e-05, No Iterations 1
GAMG:  Solving for p_rgh, Initial residual = 0, Final residual = 0, No Iterations 0
time step continuity errors : sum local = 0, global = 0, cumulative = 0
DILUPBiCGStab:  Solving for omega, Initial residual = 9.09463e-06, Final residual = 6.20939e-08, No Iterations 1
DILUPBiCGStab:  Solving for k, Initial residual = 0.00885453, Final residual = 1.70998e-05, No Iterations 1
ExecutionTime = 7.26557 s  ClockTime = 7 s

Courant Number mean: 0 max: 0
Time = 46s

DICPCG:  Solving for w, Initial residual = 0.00468794, Final residual = 2.35465e-12, No Iterations 1
Global Volume-Averaged Solid Fraction (Gs) = 0.0203083
DICPCG:  Solving for T, Initial residual = 0.00253367, Final residual = 2.24727e-05, No Iterations 1
GAMG:  Solving for p_rgh, Initial residual = 0, Final residual = 0, No Iterations 0
time step continuity errors : sum local = 0, global = 0, cumulative = 0
DILUPBiCGStab:  Solving for omega, Initial residual = 8.55576e-06, Final residual = 6.01937e-08, No Iterations 1
DILUPBiCGStab:  Solving for k, Initial residual = 0.00888932, Final residual = 1.71241e-05, No Iterations 1
ExecutionTime = 7.33897 s  ClockTime = 7 s

Courant Number mean: 0 max: 0
Time = 46.5s

DICPCG:  Solving for w, Initial residual = 0.0041102, Final residual = 2.06479e-12, No Iterations 1
Global Volume-Averaged Solid Fraction (Gs) = 0.0201179
DICPCG:  Solving for T, Initial residual = 0.00242176, Final residual = 1.89894e-05, No Iterations 1
GAMG:  Solving for p_rgh, Initial residual = 0, Final residual = 0, No Iterations 0
time step continuity errors : sum local = 0, global = 0, cumulative = 0
DILUPBiCGStab:  Solving for omega, Initial residual = 8.04138e-06, Final residual = 5.80609e-08, No Iterations 1
DILUPBiCGStab:  Solving for k, Initial residual = 0.00892262, Final residual = 1.7148e-05, No Iterations 1
ExecutionTime = 7.40666 s  ClockTime = 7 s

Courant Number mean: 0 max: 0
Time = 47s

DICPCG:  Solving for w, Initial residual = 0.00465674, Final residual = 2.3381e-12, No Iterations 1
Global Volume-Averaged Solid Fraction (Gs) = 0.0200315
DICPCG:  Solving for T, Initial residual = 0.0249936, Final residual = 0.000210837, No Iterations 1
GAMG:  Solving for p_rgh, Initial residual = 0, Final residual = 0, No Iterations 0
time step continuity errors : sum local = 0, global = 0, cumulative = 0
DILUPBiCGStab:  Solving for omega, Initial residual = 7.55688e-06, Final residual = 5.56842e-08, No Iterations 1
DILUPBiCGStab:  Solving for k, Initial residual = 0.00895444, Final residual = 1.71715e-05, No Iterations 1
ExecutionTime = 7.47464 s  ClockTime = 8 s

Courant Number mean: 0 max: 0
Time = 47.5s

DICPCG:  Solving for w, Initial residual = 0.003689, Final residual = 1.88095e-12, No Iterations 1
Global Volume-Averaged Solid Fraction (Gs) = 0.0213892
DICPCG:  Solving for T, Initial residual = 0.0159825, Final residual = 0.000101954, No Iterations 1
GAMG:  Solving for p_rgh, Initial residual = 0, Final residual = 0, No Iterations 0
time step continuity errors : sum local = 0, global = 0, cumulative = 0
DILUPBiCGStab:  Solving for omega, Initial residual = 7.10518e-06, Final residual = 5.30766e-08, No Iterations 1
DILUPBiCGStab:  Solving for k, Initial residual = 0.00898479, Final residual = 1.71946e-05, No Iterations 1
ExecutionTime = 7.54316 s  ClockTime = 8 s

Courant Number mean: 0 max: 0
Time = 48s

DICPCG:  Solving for w, Initial residual = 0.00375892, Final residual = 1.91271e-12, No Iterations 1
Global Volume-Averaged Solid Fraction (Gs) = 0.022132
DICPCG:  Solving for T, Initial residual = 0.00727268, Final residual = 6.04741e-05, No Iterations 1
GAMG:  Solving for p_rgh, Initial residual = 0, Final residual = 0, No Iterations 0
time step continuity errors : sum local = 0, global = 0, cumulative = 0
DILUPBiCGStab:  Solving for omega, Initial residual = 6.67951e-06, Final residual = 5.02957e-08, No Iterations 1
DILUPBiCGStab:  Solving for k, Initial residual = 0.0090137, Final residual = 1.72172e-05, No Iterations 1
ExecutionTime = 7.61254 s  ClockTime = 8 s

Courant Number mean: 0 max: 0
Time = 48.5s

DICPCG:  Solving for w, Initial residual = 0.00366179, Final residual = 1.85919e-12, No Iterations 1
Global Volume-Averaged Solid Fraction (Gs) = 0.0219911
DICPCG:  Solving for T, Initial residual = 0.00420144, Final residual = 5.43285e-05, No Iterations 1
GAMG:  Solving for p_rgh, Initial residual = 0, Final residual = 0, No Iterations 0
time step continuity errors : sum local = 0, global = 0, cumulative = 0
DILUPBiCGStab:  Solving for omega, Initial residual = 6.27064e-06, Final residual = 4.73015e-08, No Iterations 1
DILUPBiCGStab:  Solving for k, Initial residual = 0.00904117, Final residual = 1.72393e-05, No Iterations 1
ExecutionTime = 7.68537 s  ClockTime = 8 s

Courant Number mean: 0 max: 0
Time = 49s

DICPCG:  Solving for w, Initial residual = 0.00425689, Final residual = 2.16306e-12, No Iterations 1
Global Volume-Averaged Solid Fraction (Gs) = 0.0216078
DICPCG:  Solving for T, Initial residual = 0.00318232, Final residual = 4.4441e-05, No Iterations 1
GAMG:  Solving for p_rgh, Initial residual = 0, Final residual = 0, No Iterations 0
time step continuity errors : sum local = 0, global = 0, cumulative = 0
DILUPBiCGStab:  Solving for omega, Initial residual = 5.89891e-06, Final residual = 4.41385e-08, No Iterations 1
DILUPBiCGStab:  Solving for k, Initial residual = 0.00906722, Final residual = 1.7261e-05, No Iterations 1
ExecutionTime = 7.75609 s  ClockTime = 8 s

Courant Number mean: 0 max: 0
Time = 49.5s

DICPCG:  Solving for w, Initial residual = 0.00345568, Final residual = 1.76275e-12, No Iterations 1
Global Volume-Averaged Solid Fraction (Gs) = 0.0212402
DICPCG:  Solving for T, Initial residual = 0.00277106, Final residual = 3.63822e-05, No Iterations 1
GAMG:  Solving for p_rgh, Initial residual = 0, Final residual = 0, No Iterations 0
time step continuity errors : sum local = 0, global = 0, cumulative = 0
DILUPBiCGStab:  Solving for omega, Initial residual = 5.57288e-06, Final residual = 4.08824e-08, No Iterations 1
DILUPBiCGStab:  Solving for k, Initial residual = 0.00909188, Final residual = 1.72823e-05, No Iterations 1
ExecutionTime = 7.82644 s  ClockTime = 8 s

Courant Number mean: 0 max: 0
Time = 50s

DICPCG:  Solving for w, Initial residual = 0.00389522, Final residual = 1.97918e-12, No Iterations 1
Global Volume-Averaged Solid Fraction (Gs) = 0.0209333
DICPCG:  Solving for T, Initial residual = 0.00254454, Final residual = 2.97831e-05, No Iterations 1
GAMG:  Solving for p_rgh, Initial residual = 0, Final residual = 0, No Iterations 0
time step continuity errors : sum local = 0, global = 0, cumulative = 0
DILUPBiCGStab:  Solving for omega, Initial residual = 5.26732e-06, Final residual = 3.7623e-08, No Iterations 1
DILUPBiCGStab:  Solving for k, Initial residual = 0.00911516, Final residual = 1.7303e-05, No Iterations 1
ExecutionTime = 7.98995 s  ClockTime = 8 s

Courant Number mean: 0 max: 0
Time = 50.5s

DICPCG:  Solving for w, Initial residual = 0.00336865, Final residual = 1.71314e-12, No Iterations 1
Global Volume-Averaged Solid Fraction (Gs) = 0.020683
DICPCG:  Solving for T, Initial residual = 0.00240745, Final residual = 2.46535e-05, No Iterations 1
GAMG:  Solving for p_rgh, Initial residual = 0, Final residual = 0, No Iterations 0
time step continuity errors : sum local = 0, global = 0, cumulative = 0
DILUPBiCGStab:  Solving for omega, Initial residual = 4.98174e-06, Final residual = 3.44095e-08, No Iterations 1
DILUPBiCGStab:  Solving for k, Initial residual = 0.00913706, Final residual = 1.7323e-05, No Iterations 1
ExecutionTime = 8.0579 s  ClockTime = 8 s

Courant Number mean: 0 max: 0
Time = 51s

DICPCG:  Solving for w, Initial residual = 0.0039009, Final residual = 1.98223e-12, No Iterations 1
Global Volume-Averaged Solid Fraction (Gs) = 0.0204769
DICPCG:  Solving for T, Initial residual = 0.00229395, Final residual = 2.05794e-05, No Iterations 1
GAMG:  Solving for p_rgh, Initial residual = 0, Final residual = 0, No Iterations 0
time step continuity errors : sum local = 0, global = 0, cumulative = 0
DILUPBiCGStab:  Solving for omega, Initial residual = 4.74703e-06, Final residual = 3.15356e-08, No Iterations 1
DILUPBiCGStab:  Solving for k, Initial residual = 0.00915757, Final residual = 1.73424e-05, No Iterations 1
ExecutionTime = 8.13831 s  ClockTime = 8 s

Courant Number mean: 0 max: 0
Time = 51.5s

DICPCG:  Solving for w, Initial residual = 0.00376036, Final residual = 1.91126e-12, No Iterations 1
Global Volume-Averaged Solid Fraction (Gs) = 0.0203043
DICPCG:  Solving for T, Initial residual = 0.00218916, Final residual = 1.73259e-05, No Iterations 1
GAMG:  Solving for p_rgh, Initial residual = 0, Final residual = 0, No Iterations 0
time step continuity errors : sum local = 0, global = 0, cumulative = 0
DILUPBiCGStab:  Solving for omega, Initial residual = 4.53824e-06, Final residual = 2.8938e-08, No Iterations 1
DILUPBiCGStab:  Solving for k, Initial residual = 0.00917676, Final residual = 1.73612e-05, No Iterations 1
ExecutionTime = 8.23655 s  ClockTime = 8 s

Courant Number mean: 0 max: 0
Time = 52s

DICPCG:  Solving for w, Initial residual = 0.00359054, Final residual = 1.83381e-12, No Iterations 1
Global Volume-Averaged Solid Fraction (Gs) = 0.0201573
DICPCG:  Solving for T, Initial residual = 0.0021037, Final residual = 1.46932e-05, No Iterations 1
GAMG:  Solving for p_rgh, Initial residual = 0, Final residual = 0, No Iterations 0
time step continuity errors : sum local = 0, global = 0, cumulative = 0
DILUPBiCGStab:  Solving for omega, Initial residual = 4.33603e-06, Final residual = 2.66371e-08, No Iterations 1
DILUPBiCGStab:  Solving for k, Initial residual = 0.00919467, Final residual = 1.73793e-05, No Iterations 1
ExecutionTime = 8.33771 s  ClockTime = 8 s

Courant Number mean: 0 max: 0
Time = 52.5s

DICPCG:  Solving for w, Initial residual = 0.00331184, Final residual = 1.68276e-12, No Iterations 1
Global Volume-Averaged Solid Fraction (Gs) = 0.0200479
DICPCG:  Solving for T, Initial residual = 0.0230112, Final residual = 0.000195046, No Iterations 1
GAMG:  Solving for p_rgh, Initial residual = 0, Final residual = 0, No Iterations 0
time step continuity errors : sum local = 0, global = 0, cumulative = 0
DILUPBiCGStab:  Solving for omega, Initial residual = 4.1712e-06, Final residual = 2.45251e-08, No Iterations 1
DILUPBiCGStab:  Solving for k, Initial residual = 0.00921131, Final residual = 1.73966e-05, No Iterations 1
ExecutionTime = 8.4256 s  ClockTime = 9 s

Courant Number mean: 0 max: 0
Time = 53s

DICPCG:  Solving for w, Initial residual = 0.00366904, Final residual = 1.8629e-12, No Iterations 1
Global Volume-Averaged Solid Fraction (Gs) = 0.0213562
DICPCG:  Solving for T, Initial residual = 0.0163584, Final residual = 0.000106404, No Iterations 1
GAMG:  Solving for p_rgh, Initial residual = 0, Final residual = 0, No Iterations 0
time step continuity errors : sum local = 0, global = 0, cumulative = 0
DILUPBiCGStab:  Solving for omega, Initial residual = 4.02576e-06, Final residual = 2.27421e-08, No Iterations 1
DILUPBiCGStab:  Solving for k, Initial residual = 0.0092267, Final residual = 1.74132e-05, No Iterations 1
ExecutionTime = 8.50203 s  ClockTime = 9 s

Courant Number mean: 0 max: 0
Time = 53.5s

DICPCG:  Solving for w, Initial residual = 0.00340751, Final residual = 1.73659e-12, No Iterations 1
Global Volume-Averaged Solid Fraction (Gs) = 0.0221762
DICPCG:  Solving for T, Initial residual = 0.00782984, Final residual = 5.76315e-05, No Iterations 1
GAMG:  Solving for p_rgh, Initial residual = 0, Final residual = 0, No Iterations 0
time step continuity errors : sum local = 0, global = 0, cumulative = 0
DILUPBiCGStab:  Solving for omega, Initial residual = 3.89304e-06, Final residual = 2.11321e-08, No Iterations 1
DILUPBiCGStab:  Solving for k, Initial residual = 0.00924087, Final residual = 1.74289e-05, No Iterations 1
ExecutionTime = 8.57991 s  ClockTime = 9 s

Courant Number mean: 0 max: 0
Time = 54s

DICPCG:  Solving for w, Initial residual = 0.00360424, Final residual = 1.83849e-12, No Iterations 1
Global Volume-Averaged Solid Fraction (Gs) = 0.0221324
DICPCG:  Solving for T, Initial residual = 0.00426098, Final residual = 5.10554e-05, No Iterations 1
GAMG:  Solving for p_rgh, Initial residual = 0, Final residual = 0, No Iterations 0
time step continuity errors : sum local = 0, global = 0, cumulative = 0
DILUPBiCGStab:  Solving for omega, Initial residual = 3.79987e-06, Final residual = 1.99614e-08, No Iterations 1
DILUPBiCGStab:  Solving for k, Initial residual = 0.00925383, Final residual = 1.74438e-05, No Iterations 1
ExecutionTime = 8.65627 s  ClockTime = 9 s

Courant Number mean: 0 max: 0
Time = 54.5s

DICPCG:  Solving for w, Initial residual = 0.003369, Final residual = 1.71299e-12, No Iterations 1
Global Volume-Averaged Solid Fraction (Gs) = 0.021792
DICPCG:  Solving for T, Initial residual = 0.00307413, Final residual = 4.33272e-05, No Iterations 1
GAMG:  Solving for p_rgh, Initial residual = 0, Final residual = 0, No Iterations 0
time step continuity errors : sum local = 0, global = 0, cumulative = 0
DILUPBiCGStab:  Solving for omega, Initial residual = 3.72172e-06, Final residual = 1.90073e-08, No Iterations 1
[...]
GAMG:  Solving for p_rgh, Initial residual = 0, Final residual = 0, No Iterations 0
time step continuity errors : sum local = 0, global = 0, cumulative = 0
DILUPBiCGStab:  Solving for omega, Initial residual = 3.54568e-08, Final residual = 1.1659e-11, No Iterations 1
DILUPBiCGStab:  Solving for k, Initial residual = 0.00648342, Final residual = 8.29063e-07, No Iterations 1
ExecutionTime = 29.4116 s  ClockTime = 30 s

Courant Number mean: 0 max: 0
Time = 187s

DICPCG:  Solving for w, Initial residual = 0.000935318, Final residual = 4.89874e-13, No Iterations 1
Global Volume-Averaged Solid Fraction (Gs) = 0.021282
DICPCG:  Solving for T, Initial residual = 0.000176107, Final residual = 4.43541e-07, No Iterations 1
GAMG:  Solving for p_rgh, Initial residual = 0, Final residual = 0, No Iterations 0
time step continuity errors : sum local = 0, global = 0, cumulative = 0
DILUPBiCGStab:  Solving for omega, Initial residual = 3.44859e-08, Final residual = 1.13269e-11, No Iterations 1
DILUPBiCGStab:  Solving for k, Initial residual = 0.00648227, Final residual = 8.22059e-07, No Iterations 1
ExecutionTime = 29.4859 s  ClockTime = 30 s

Courant Number mean: 0 max: 0
Time = 187.5s

DICPCG:  Solving for w, Initial residual = 0.000948926, Final residual = 4.96878e-13, No Iterations 1
Global Volume-Averaged Solid Fraction (Gs) = 0.0212867
DICPCG:  Solving for T, Initial residual = 0.000175139, Final residual = 4.4133e-07, No Iterations 1
GAMG:  Solving for p_rgh, Initial residual = 0, Final residual = 0, No Iterations 0
time step continuity errors : sum local = 0, global = 0, cumulative = 0
DILUPBiCGStab:  Solving for omega, Initial residual = 3.3541e-08, Final residual = 1.10043e-11, No Iterations 1
DILUPBiCGStab:  Solving for k, Initial residual = 0.00648114, Final residual = 8.1535e-07, No Iterations 1
ExecutionTime = 29.555 s  ClockTime = 30 s

Courant Number mean: 0 max: 0
Time = 188s

DICPCG:  Solving for w, Initial residual = 0.00106846, Final residual = 5.58511e-13, No Iterations 1
Global Volume-Averaged Solid Fraction (Gs) = 0.0212914
DICPCG:  Solving for T, Initial residual = 0.000174176, Final residual = 4.39127e-07, No Iterations 1
GAMG:  Solving for p_rgh, Initial residual = 0, Final residual = 0, No Iterations 0
time step continuity errors : sum local = 0, global = 0, cumulative = 0
DILUPBiCGStab:  Solving for omega, Initial residual = 3.26214e-08, Final residual = 1.06912e-11, No Iterations 1
DILUPBiCGStab:  Solving for k, Initial residual = 0.00648004, Final residual = 8.0895e-07, No Iterations 1
ExecutionTime = 29.6231 s  ClockTime = 30 s

Courant Number mean: 0 max: 0
Time = 188.5s

DICPCG:  Solving for w, Initial residual = 0.000917777, Final residual = 4.81942e-13, No Iterations 1
Global Volume-Averaged Solid Fraction (Gs) = 0.021296
DICPCG:  Solving for T, Initial residual = 0.000173219, Final residual = 4.3693e-07, No Iterations 1
GAMG:  Solving for p_rgh, Initial residual = 0, Final residual = 0, No Iterations 0
time step continuity errors : sum local = 0, global = 0, cumulative = 0
DILUPBiCGStab:  Solving for omega, Initial residual = 3.17265e-08, Final residual = 1.03869e-11, No Iterations 1
DILUPBiCGStab:  Solving for k, Initial residual = 0.00647895, Final residual = 8.02797e-07, No Iterations 1
ExecutionTime = 29.6914 s  ClockTime = 30 s

Courant Number mean: 0 max: 0
Time = 189s

DICPCG:  Solving for w, Initial residual = 0.00109993, Final residual = 5.78934e-13, No Iterations 1
Global Volume-Averaged Solid Fraction (Gs) = 0.0213006
DICPCG:  Solving for T, Initial residual = 0.000172267, Final residual = 4.3474e-07, No Iterations 1
GAMG:  Solving for p_rgh, Initial residual = 0, Final residual = 0, No Iterations 0
time step continuity errors : sum local = 0, global = 0, cumulative = 0
DILUPBiCGStab:  Solving for omega, Initial residual = 3.08556e-08, Final residual = 1.00914e-11, No Iterations 1
DILUPBiCGStab:  Solving for k, Initial residual = 0.00647788, Final residual = 7.96883e-07, No Iterations 1
ExecutionTime = 29.7613 s  ClockTime = 30 s

Courant Number mean: 0 max: 0
Time = 189.5s

DICPCG:  Solving for w, Initial residual = 0.000933294, Final residual = 4.88603e-13, No Iterations 1
Global Volume-Averaged Solid Fraction (Gs) = 0.0213052
DICPCG:  Solving for T, Initial residual = 0.000171321, Final residual = 4.32558e-07, No Iterations 1
GAMG:  Solving for p_rgh, Initial residual = 0, Final residual = 0, No Iterations 0
time step continuity errors : sum local = 0, global = 0, cumulative = 0
DILUPBiCGStab:  Solving for omega, Initial residual = 3.00081e-08, Final residual = 9.80464e-12, No Iterations 1
DILUPBiCGStab:  Solving for k, Initial residual = 0.00647683, Final residual = 7.91126e-07, No Iterations 1
ExecutionTime = 29.832 s  ClockTime = 30 s

Courant Number mean: 0 max: 0
Time = 190s

DICPCG:  Solving for w, Initial residual = 0.000861703, Final residual = 4.47398e-13, No Iterations 1
Global Volume-Averaged Solid Fraction (Gs) = 0.0213097
DICPCG:  Solving for T, Initial residual = 0.00017038, Final residual = 4.30382e-07, No Iterations 1
GAMG:  Solving for p_rgh, Initial residual = 0, Final residual = 0, No Iterations 0
time step continuity errors : sum local = 0, global = 0, cumulative = 0
DILUPBiCGStab:  Solving for omega, Initial residual = 2.91834e-08, Final residual = 9.52641e-12, No Iterations 1
DILUPBiCGStab:  Solving for k, Initial residual = 0.0064758, Final residual = 7.85588e-07, No Iterations 1
ExecutionTime = 30.0009 s  ClockTime = 30 s

Courant Number mean: 0 max: 0
Time = 190.5s

DICPCG:  Solving for w, Initial residual = 0.000967449, Final residual = 5.07866e-13, No Iterations 1
Global Volume-Averaged Solid Fraction (Gs) = 0.0213143
DICPCG:  Solving for T, Initial residual = 0.000169445, Final residual = 4.28215e-07, No Iterations 1
GAMG:  Solving for p_rgh, Initial residual = 0, Final residual = 0, No Iterations 0
time step continuity errors : sum local = 0, global = 0, cumulative = 0
DILUPBiCGStab:  Solving for omega, Initial residual = 2.83809e-08, Final residual = 9.25636e-12, No Iterations 1
DILUPBiCGStab:  Solving for k, Initial residual = 0.0064748, Final residual = 7.80271e-07, No Iterations 1
ExecutionTime = 30.065 s  ClockTime = 30 s

Courant Number mean: 0 max: 0
Time = 191s

DICPCG:  Solving for w, Initial residual = 0.00108058, Final residual = 5.68152e-13, No Iterations 1
Global Volume-Averaged Solid Fraction (Gs) = 0.0213188
DICPCG:  Solving for T, Initial residual = 0.000168516, Final residual = 4.26054e-07, No Iterations 1
GAMG:  Solving for p_rgh, Initial residual = 0, Final residual = 0, No Iterations 0
time step continuity errors : sum local = 0, global = 0, cumulative = 0
DILUPBiCGStab:  Solving for omega, Initial residual = 2.76e-08, Final residual = 8.99422e-12, No Iterations 1
DILUPBiCGStab:  Solving for k, Initial residual = 0.00647382, Final residual = 7.75186e-07, No Iterations 1
ExecutionTime = 30.1287 s  ClockTime = 30 s

Courant Number mean: 0 max: 0
Time = 191.5s

DICPCG:  Solving for w, Initial residual = 0.00096774, Final residual = 5.07589e-13, No Iterations 1
Global Volume-Averaged Solid Fraction (Gs) = 0.0213233
DICPCG:  Solving for T, Initial residual = 0.000167591, Final residual = 4.23901e-07, No Iterations 1
GAMG:  Solving for p_rgh, Initial residual = 0, Final residual = 0, No Iterations 0
time step continuity errors : sum local = 0, global = 0, cumulative = 0
DILUPBiCGStab:  Solving for omega, Initial residual = 2.68402e-08, Final residual = 8.74008e-12, No Iterations 1
DILUPBiCGStab:  Solving for k, Initial residual = 0.00647285, Final residual = 7.70247e-07, No Iterations 1
ExecutionTime = 30.1919 s  ClockTime = 30 s

Courant Number mean: 0 max: 0
Time = 192s

DICPCG:  Solving for w, Initial residual = 0.00109277, Final residual = 5.70989e-13, No Iterations 1
Global Volume-Averaged Solid Fraction (Gs) = 0.0213278
DICPCG:  Solving for T, Initial residual = 0.000166673, Final residual = 4.21756e-07, No Iterations 1
GAMG:  Solving for p_rgh, Initial residual = 0, Final residual = 0, No Iterations 0
time step continuity errors : sum local = 0, global = 0, cumulative = 0
DILUPBiCGStab:  Solving for omega, Initial residual = 2.61009e-08, Final residual = 8.49325e-12, No Iterations 1
DILUPBiCGStab:  Solving for k, Initial residual = 0.00647191, Final residual = 7.65462e-07, No Iterations 1
ExecutionTime = 30.2574 s  ClockTime = 30 s

Courant Number mean: 0 max: 0
Time = 192.5s

DICPCG:  Solving for w, Initial residual = 0.000913235, Final residual = 4.77111e-13, No Iterations 1
Global Volume-Averaged Solid Fraction (Gs) = 0.0213322
DICPCG:  Solving for T, Initial residual = 0.000165759, Final residual = 4.19619e-07, No Iterations 1
GAMG:  Solving for p_rgh, Initial residual = 0, Final residual = 0, No Iterations 0
time step continuity errors : sum local = 0, global = 0, cumulative = 0
DILUPBiCGStab:  Solving for omega, Initial residual = 2.53815e-08, Final residual = 8.25328e-12, No Iterations 1
DILUPBiCGStab:  Solving for k, Initial residual = 0.00647099, Final residual = 7.60811e-07, No Iterations 1
ExecutionTime = 30.323 s  ClockTime = 30 s

Courant Number mean: 0 max: 0
Time = 193s

DICPCG:  Solving for w, Initial residual = 0.000886696, Final residual = 4.65149e-13, No Iterations 1
Global Volume-Averaged Solid Fraction (Gs) = 0.0213367
DICPCG:  Solving for T, Initial residual = 0.000164851, Final residual = 4.17489e-07, No Iterations 1
GAMG:  Solving for p_rgh, Initial residual = 0, Final residual = 0, No Iterations 0
time step continuity errors : sum local = 0, global = 0, cumulative = 0
DILUPBiCGStab:  Solving for omega, Initial residual = 2.46816e-08, Final residual = 8.02e-12, No Iterations 1
DILUPBiCGStab:  Solving for k, Initial residual = 0.00647009, Final residual = 7.56327e-07, No Iterations 1
ExecutionTime = 30.3871 s  ClockTime = 31 s

Courant Number mean: 0 max: 0
Time = 193.5s

DICPCG:  Solving for w, Initial residual = 0.00106919, Final residual = 5.64878e-13, No Iterations 1
Global Volume-Averaged Solid Fraction (Gs) = 0.0213411
DICPCG:  Solving for T, Initial residual = 0.000163948, Final residual = 4.15367e-07, No Iterations 1
GAMG:  Solving for p_rgh, Initial residual = 0, Final residual = 0, No Iterations 0
time step continuity errors : sum local = 0, global = 0, cumulative = 0
DILUPBiCGStab:  Solving for omega, Initial residual = 2.40007e-08, Final residual = 7.79338e-12, No Iterations 1
DILUPBiCGStab:  Solving for k, Initial residual = 0.0064692, Final residual = 7.52077e-07, No Iterations 1
ExecutionTime = 30.4509 s  ClockTime = 31 s

Courant Number mean: 0 max: 0
Time = 194s

DICPCG:  Solving for w, Initial residual = 0.000972989, Final residual = 5.10492e-13, No Iterations 1
Global Volume-Averaged Solid Fraction (Gs) = 0.0213454
DICPCG:  Solving for T, Initial residual = 0.00016305, Final residual = 4.13253e-07, No Iterations 1
GAMG:  Solving for p_rgh, Initial residual = 0, Final residual = 0, No Iterations 0
time step continuity errors : sum local = 0, global = 0, cumulative = 0
DILUPBiCGStab:  Solving for omega, Initial residual = 2.33381e-08, Final residual = 7.57329e-12, No Iterations 1
DILUPBiCGStab:  Solving for k, Initial residual = 0.00646834, Final residual = 7.47985e-07, No Iterations 1
ExecutionTime = 30.5156 s  ClockTime = 31 s

Courant Number mean: 0 max: 0
Time = 194.5s

DICPCG:  Solving for w, Initial residual = 0.00101094, Final residual = 5.31492e-13, No Iterations 1
Global Volume-Averaged Solid Fraction (Gs) = 0.0213498
DICPCG:  Solving for T, Initial residual = 0.000162157, Final residual = 4.11147e-07, No Iterations 1
GAMG:  Solving for p_rgh, Initial residual = 0, Final residual = 0, No Iterations 0
time step continuity errors : sum local = 0, global = 0, cumulative = 0
DILUPBiCGStab:  Solving for omega, Initial residual = 2.26935e-08, Final residual = 7.35938e-12, No Iterations 1
DILUPBiCGStab:  Solving for k, Initial residual = 0.00646749, Final residual = 7.44002e-07, No Iterations 1
ExecutionTime = 30.5792 s  ClockTime = 31 s

Courant Number mean: 0 max: 0
Time = 195s

DICPCG:  Solving for w, Initial residual = 0.000977961, Final residual = 5.13999e-13, No Iterations 1
Global Volume-Averaged Solid Fraction (Gs) = 0.0213541
DICPCG:  Solving for T, Initial residual = 0.00016127, Final residual = 4.09048e-07, No Iterations 1
GAMG:  Solving for p_rgh, Initial residual = 0, Final residual = 0, No Iterations 0
time step continuity errors : sum local = 0, global = 0, cumulative = 0
DILUPBiCGStab:  Solving for omega, Initial residual = 2.20664e-08, Final residual = 7.15143e-12, No Iterations 1
DILUPBiCGStab:  Solving for k, Initial residual = 0.00646666, Final residual = 7.40171e-07, No Iterations 1
ExecutionTime = 30.7415 s  ClockTime = 31 s

Courant Number mean: 0 max: 0
Time = 195.5s

DICPCG:  Solving for w, Initial residual = 0.000863417, Final residual = 4.51598e-13, No Iterations 1
Global Volume-Averaged Solid Fraction (Gs) = 0.0213585
DICPCG:  Solving for T, Initial residual = 0.000160388, Final residual = 4.06958e-07, No Iterations 1
GAMG:  Solving for p_rgh, Initial residual = 0, Final residual = 0, No Iterations 0
time step continuity errors : sum local = 0, global = 0, cumulative = 0
DILUPBiCGStab:  Solving for omega, Initial residual = 2.14563e-08, Final residual = 6.94928e-12, No Iterations 1
DILUPBiCGStab:  Solving for k, Initial residual = 0.00646584, Final residual = 7.36503e-07, No Iterations 1
ExecutionTime = 30.8101 s  ClockTime = 31 s

Courant Number mean: 0 max: 0
Time = 196s

DICPCG:  Solving for w, Initial residual = 0.000894273, Final residual = 4.69222e-13, No Iterations 1
Global Volume-Averaged Solid Fraction (Gs) = 0.0213628
DICPCG:  Solving for T, Initial residual = 0.00015951, Final residual = 4.04876e-07, No Iterations 1
GAMG:  Solving for p_rgh, Initial residual = 0, Final residual = 0, No Iterations 0
time step continuity errors : sum local = 0, global = 0, cumulative = 0
DILUPBiCGStab:  Solving for omega, Initial residual = 2.08628e-08, Final residual = 6.75303e-12, No Iterations 1
DILUPBiCGStab:  Solving for k, Initial residual = 0.00646505, Final residual = 7.33001e-07, No Iterations 1
ExecutionTime = 30.8752 s  ClockTime = 31 s

Courant Number mean: 0 max: 0
Time = 196.5s

DICPCG:  Solving for w, Initial residual = 0.00103889, Final residual = 5.43152e-13, No Iterations 1
Global Volume-Averaged Solid Fraction (Gs) = 0.021367
DICPCG:  Solving for T, Initial residual = 0.000158638, Final residual = 4.02803e-07, No Iterations 1
GAMG:  Solving for p_rgh, Initial residual = 0, Final residual = 0, No Iterations 0
time step continuity errors : sum local = 0, global = 0, cumulative = 0
DILUPBiCGStab:  Solving for omega, Initial residual = 2.02854e-08, Final residual = 6.56257e-12, No Iterations 1
DILUPBiCGStab:  Solving for k, Initial residual = 0.00646427, Final residual = 7.29683e-07, No Iterations 1
ExecutionTime = 30.9387 s  ClockTime = 31 s

Courant Number mean: 0 max: 0
Time = 197s

DICPCG:  Solving for w, Initial residual = 0.000983104, Final residual = 5.16596e-13, No Iterations 1
Global Volume-Averaged Solid Fraction (Gs) = 0.0213713
DICPCG:  Solving for T, Initial residual = 0.000157771, Final residual = 4.00737e-07, No Iterations 1
GAMG:  Solving for p_rgh, Initial residual = 0, Final residual = 0, No Iterations 0
time step continuity errors : sum local = 0, global = 0, cumulative = 0
DILUPBiCGStab:  Solving for omega, Initial residual = 1.97237e-08, Final residual = 6.37756e-12, No Iterations 1
DILUPBiCGStab:  Solving for k, Initial residual = 0.0064635, Final residual = 7.26507e-07, No Iterations 1
ExecutionTime = 31.0032 s  ClockTime = 31 s

Courant Number mean: 0 max: 0
Time = 197.5s

DICPCG:  Solving for w, Initial residual = 0.000899392, Final residual = 4.70437e-13, No Iterations 1
Global Volume-Averaged Solid Fraction (Gs) = 0.0213755
DICPCG:  Solving for T, Initial residual = 0.000156909, Final residual = 3.98679e-07, No Iterations 1
GAMG:  Solving for p_rgh, Initial residual = 0, Final residual = 0, No Iterations 0
time step continuity errors : sum local = 0, global = 0, cumulative = 0
DILUPBiCGStab:  Solving for omega, Initial residual = 1.91773e-08, Final residual = 6.19772e-12, No Iterations 1
DILUPBiCGStab:  Solving for k, Initial residual = 0.00646275, Final residual = 7.23438e-07, No Iterations 1
ExecutionTime = 31.0677 s  ClockTime = 31 s

Courant Number mean: 0 max: 0
Time = 198s

DICPCG:  Solving for w, Initial residual = 0.000978736, Final residual = 5.12979e-13, No Iterations 1
Global Volume-Averaged Solid Fraction (Gs) = 0.0213797
DICPCG:  Solving for T, Initial residual = 0.000156051, Final residual = 3.9663e-07, No Iterations 1
GAMG:  Solving for p_rgh, Initial residual = 0, Final residual = 0, No Iterations 0
time step continuity errors : sum local = 0, global = 0, cumulative = 0
DILUPBiCGStab:  Solving for omega, Initial residual = 1.86458e-08, Final residual = 6.02286e-12, No Iterations 1
DILUPBiCGStab:  Solving for k, Initial residual = 0.00646202, Final residual = 7.20555e-07, No Iterations 1
ExecutionTime = 31.1322 s  ClockTime = 31 s

Courant Number mean: 0 max: 0
Time = 198.5s

DICPCG:  Solving for w, Initial residual = 0.000941299, Final residual = 4.95776e-13, No Iterations 1
Global Volume-Averaged Solid Fraction (Gs) = 0.0213839
DICPCG:  Solving for T, Initial residual = 0.000155199, Final residual = 3.94589e-07, No Iterations 1
GAMG:  Solving for p_rgh, Initial residual = 0, Final residual = 0, No Iterations 0
time step continuity errors : sum local = 0, global = 0, cumulative = 0
DILUPBiCGStab:  Solving for omega, Initial residual = 1.81288e-08, Final residual = 5.85286e-12, No Iterations 1
DILUPBiCGStab:  Solving for k, Initial residual = 0.0064613, Final residual = 7.17849e-07, No Iterations 1
ExecutionTime = 31.1976 s  ClockTime = 31 s

Courant Number mean: 0 max: 0
Time = 199s

DICPCG:  Solving for w, Initial residual = 0.000950579, Final residual = 4.98018e-13, No Iterations 1
Global Volume-Averaged Solid Fraction (Gs) = 0.0213881
DICPCG:  Solving for T, Initial residual = 0.000154351, Final residual = 3.92557e-07, No Iterations 1
GAMG:  Solving for p_rgh, Initial residual = 0, Final residual = 0, No Iterations 0
time step continuity errors : sum local = 0, global = 0, cumulative = 0
DILUPBiCGStab:  Solving for omega, Initial residual = 1.76259e-08, Final residual = 5.68772e-12, No Iterations 1
DILUPBiCGStab:  Solving for k, Initial residual = 0.0064606, Final residual = 7.15238e-07, No Iterations 1
ExecutionTime = 31.2656 s  ClockTime = 31 s

Courant Number mean: 0 max: 0
Time = 199.5s

DICPCG:  Solving for w, Initial residual = 0.000987445, Final residual = 5.17219e-13, No Iterations 1
Global Volume-Averaged Solid Fraction (Gs) = 0.0213923
DICPCG:  Solving for T, Initial residual = 0.000153509, Final residual = 3.90532e-07, No Iterations 1
GAMG:  Solving for p_rgh, Initial residual = 0, Final residual = 0, No Iterations 0
time step continuity errors : sum local = 0, global = 0, cumulative = 0
DILUPBiCGStab:  Solving for omega, Initial residual = 1.71367e-08, Final residual = 5.52731e-12, No Iterations 1
DILUPBiCGStab:  Solving for k, Initial residual = 0.00645991, Final residual = 7.12753e-07, No Iterations 1
ExecutionTime = 31.3323 s  ClockTime = 32 s

Courant Number mean: 0 max: 0
Time = 200s

DICPCG:  Solving for w, Initial residual = 0.000840386, Final residual = 4.38077e-13, No Iterations 1
Global Volume-Averaged Solid Fraction (Gs) = 0.0213964
DICPCG:  Solving for T, Initial residual = 0.000152671, Final residual = 3.88516e-07, No Iterations 1
GAMG:  Solving for p_rgh, Initial residual = 0, Final residual = 0, No Iterations 0
time step continuity errors : sum local = 0, global = 0, cumulative = 0
DILUPBiCGStab:  Solving for omega, Initial residual = 1.66608e-08, Final residual = 5.37141e-12, No Iterations 1
DILUPBiCGStab:  Solving for k, Initial residual = 0.00645923, Final residual = 7.10368e-07, No Iterations 1
ExecutionTime = 31.4914 s  ClockTime = 32 s

End

