/*---------------------------------------------------------------------------*\
  =========                 |
  \\      /  F ield         | OpenFOAM: The Open Source CFD Toolbox
   \\    /   O peration     | Website:  https://openfoam.org
    \\  /    A nd           | Version:  13
     \\/     M anipulation  |
\*---------------------------------------------------------------------------*/
Build  : 13-cde978a97c93
Exec   : teseLB_definitive
Date   : Jan 30 2026
Time   : 19:53:42
Host   : "leonardomaximinobernardo"
PID    : 20866
I/O    : uncollated
Case   : /home/leonardomaximinobernardo/My_projects/teseLB_quantico/teseLB/validationCase_definitive
nProcs : 1
sigFpe : Enabling floating point exception trapping (FOAM_SIGFPE).
fileModificationChecking : Monitoring run-time modified files using timeStampMaster (fileModificationSkew 10)
allowSystemOperations : Allowing user-supplied system call operations

// * * * * * * * * * * * * * * * * * * * * * * * * * * * * * * * * * * * * * //
Create time

Create mesh for time = 0


PIMPLE: Convergence criteria found
        p_rgh: tolerance 0.0001
        U: tolerance 0.0001
        h: tolerance 0.0001
        "(k|epsilon|omega)": tolerance 0.001


PIMPLE: Operating solver in steady-state mode with 1 outer corrector
PIMPLE: Operating solver in SIMPLE mode


Reading thermophysical properties

Reading field p_rgh

Reading field U

Reading/calculating face flux field phi

Reading field T

Reading field w

Creating viscosity model

Creating turbulence model

Selecting turbulence model type RAS
    Selecting RAS turbulence model kOmegaSST
Reading field alphat

Reading field difft


Reading g
No MRF models present

Courant Number mean: 0 max: 0
Selecting patchDistMethod meshWave

 Starting time loop

Courant Number mean: 0 max: 0
Time = 0.1s

DICPCG:  Solving for w, Initial residual = 0.47735, Final residual = 0.000435902, No Iterations 1
Global Volume-Averaged Solid Fraction (Gs) = 0.0232283
DICPCG:  Solving for T, Initial residual = 0.404004, Final residual = 0.00040549, No Iterations 1
GAMG:  Solving for p_rgh, Initial residual = 0, Final residual = 0, No Iterations 0
time step continuity errors : sum local = 0, global = 0, cumulative = 0
DILUPBiCGStab:  Solving for omega, Initial residual = 0.138111, Final residual = 0.00106755, No Iterations 1
DILUPBiCGStab:  Solving for k, Initial residual = 1, Final residual = 0.0169348, No Iterations 1
ExecutionTime = 0.31988 s  ClockTime = 0 s

Courant Number mean: 0 max: 0
Time = 0.2s

DICPCG:  Solving for w, Initial residual = 0.238351, Final residual = 0.000253759, No Iterations 1
Global Volume-Averaged Solid Fraction (Gs) = 0.0232283
DICPCG:  Solving for T, Initial residual = 0.252016, Final residual = 0.000288896, No Iterations 1
GAMG:  Solving for p_rgh, Initial residual = 0, Final residual = 0, No Iterations 0
time step continuity errors : sum local = 0, global = 0, cumulative = 0
DILUPBiCGStab:  Solving for omega, Initial residual = 0.0147491, Final residual = 8.99533e-06, No Iterations 1
DILUPBiCGStab:  Solving for k, Initial residual = 0.434035, Final residual = 0.000767473, No Iterations 1
ExecutionTime = 0.383053 s  ClockTime = 0 s

Courant Number mean: 0 max: 0
Time = 0.3s

DICPCG:  Solving for w, Initial residual = 0.125011, Final residual = 0.000153399, No Iterations 1
Global Volume-Averaged Solid Fraction (Gs) = 0.0232283
DICPCG:  Solving for T, Initial residual = 0.154829, Final residual = 0.00019349, No Iterations 1
GAMG:  Solving for p_rgh, Initial residual = 0, Final residual = 0, No Iterations 0
time step continuity errors : sum local = 0, global = 0, cumulative = 0
DILUPBiCGStab:  Solving for omega, Initial residual = 0.00123048, Final residual = 4.94174e-06, No Iterations 1
DILUPBiCGStab:  Solving for k, Initial residual = 0.0284451, Final residual = 0.000116234, No Iterations 1
ExecutionTime = 0.443167 s  ClockTime = 0 s

Courant Number mean: 0 max: 0
Time = 0.4s

DICPCG:  Solving for w, Initial residual = 0.0804451, Final residual = 0.000108504, No Iterations 1
Global Volume-Averaged Solid Fraction (Gs) = 0.0232283
DICPCG:  Solving for T, Initial residual = 0.108537, Final residual = 0.000143237, No Iterations 1
GAMG:  Solving for p_rgh, Initial residual = 0, Final residual = 0, No Iterations 0
time step continuity errors : sum local = 0, global = 0, cumulative = 0
DILUPBiCGStab:  Solving for omega, Initial residual = 0.000342885, Final residual = 2.89296e-06, No Iterations 1
DILUPBiCGStab:  Solving for k, Initial residual = 0.00975937, Final residual = 8.02679e-05, No Iterations 1
ExecutionTime = 0.501973 s  ClockTime = 0 s

Courant Number mean: 0 max: 0
Time = 0.5s

DICPCG:  Solving for w, Initial residual = 0.0573918, Final residual = 8.23565e-05, No Iterations 1
Global Volume-Averaged Solid Fraction (Gs) = 0.0232283
DICPCG:  Solving for T, Initial residual = 0.0865875, Final residual = 0.000116289, No Iterations 1
GAMG:  Solving for p_rgh, Initial residual = 0, Final residual = 0, No Iterations 0
time step continuity errors : sum local = 0, global = 0, cumulative = 0
DILUPBiCGStab:  Solving for omega, Initial residual = 0.000221688, Final residual = 2.00387e-06, No Iterations 1
DILUPBiCGStab:  Solving for k, Initial residual = 0.00513165, Final residual = 6.00578e-05, No Iterations 1
ExecutionTime = 0.560821 s  ClockTime = 0 s

Courant Number mean: 0 max: 0
Time = 0.6s

DICPCG:  Solving for w, Initial residual = 0.0441081, Final residual = 6.55683e-05, No Iterations 1
Global Volume-Averaged Solid Fraction (Gs) = 0.0232283
DICPCG:  Solving for T, Initial residual = 0.074151, Final residual = 0.000101161, No Iterations 1
GAMG:  Solving for p_rgh, Initial residual = 0, Final residual = 0, No Iterations 0
time step continuity errors : sum local = 0, global = 0, cumulative = 0
DILUPBiCGStab:  Solving for omega, Initial residual = 0.000157716, Final residual = 1.42283e-06, No Iterations 1
DILUPBiCGStab:  Solving for k, Initial residual = 0.00365707, Final residual = 3.51103e-05, No Iterations 1
ExecutionTime = 0.61945 s  ClockTime = 0 s

Courant Number mean: 0 max: 0
Time = 0.7s

DICPCG:  Solving for w, Initial residual = 0.0347958, Final residual = 5.30693e-05, No Iterations 1
Global Volume-Averaged Solid Fraction (Gs) = 0.0232283
DICPCG:  Solving for T, Initial residual = 0.0655642, Final residual = 8.96124e-05, No Iterations 1
GAMG:  Solving for p_rgh, Initial residual = 0, Final residual = 0, No Iterations 0
time step continuity errors : sum local = 0, global = 0, cumulative = 0
DILUPBiCGStab:  Solving for omega, Initial residual = 0.000132465, Final residual = 1.06243e-06, No Iterations 1
DILUPBiCGStab:  Solving for k, Initial residual = 0.00315214, Final residual = 2.50287e-05, No Iterations 1
ExecutionTime = 0.679118 s  ClockTime = 0 s

Courant Number mean: 0 max: 0
Time = 0.8s

DICPCG:  Solving for w, Initial residual = 0.0291198, Final residual = 4.50067e-05, No Iterations 1
Global Volume-Averaged Solid Fraction (Gs) = 0.0232283
DICPCG:  Solving for T, Initial residual = 0.0595322, Final residual = 8.1929e-05, No Iterations 1
GAMG:  Solving for p_rgh, Initial residual = 0, Final residual = 0, No Iterations 0
time step continuity errors : sum local = 0, global = 0, cumulative = 0
DILUPBiCGStab:  Solving for omega, Initial residual = 0.000115505, Final residual = 7.7156e-07, No Iterations 1
DILUPBiCGStab:  Solving for k, Initial residual = 0.00298344, Final residual = 2.0702e-05, No Iterations 1
ExecutionTime = 0.743038 s  ClockTime = 1 s

Courant Number mean: 0 max: 0
Time = 0.9s

DICPCG:  Solving for w, Initial residual = 0.024484, Final residual = 3.83097e-05, No Iterations 1
Global Volume-Averaged Solid Fraction (Gs) = 0.0232283
DICPCG:  Solving for T, Initial residual = 0.0543368, Final residual = 7.46962e-05, No Iterations 1
GAMG:  Solving for p_rgh, Initial residual = 0, Final residual = 0, No Iterations 0
time step continuity errors : sum local = 0, global = 0, cumulative = 0
DILUPBiCGStab:  Solving for omega, Initial residual = 0.000104909, Final residual = 5.56889e-07, No Iterations 1
DILUPBiCGStab:  Solving for k, Initial residual = 0.00293458, Final residual = 1.82113e-05, No Iterations 1
ExecutionTime = 0.800737 s  ClockTime = 1 s

Courant Number mean: 0 max: 0
Time = 1s

DICPCG:  Solving for w, Initial residual = 0.0215577, Final residual = 3.38453e-05, No Iterations 1
Global Volume-Averaged Solid Fraction (Gs) = 0.0232283
DICPCG:  Solving for T, Initial residual = 0.0496921, Final residual = 6.83665e-05, No Iterations 1
GAMG:  Solving for p_rgh, Initial residual = 0, Final residual = 0, No Iterations 0
time step continuity errors : sum local = 0, global = 0, cumulative = 0
DILUPBiCGStab:  Solving for omega, Initial residual = 9.95686e-05, Final residual = 4.15509e-07, No Iterations 1
DILUPBiCGStab:  Solving for k, Initial residual = 0.00293467, Final residual = 1.65468e-05, No Iterations 1
ExecutionTime = 0.958931 s  ClockTime = 1 s

Courant Number mean: 0 max: 0
Time = 1.1s

DICPCG:  Solving for w, Initial residual = 0.0191616, Final residual = 3.03099e-05, No Iterations 1
Global Volume-Averaged Solid Fraction (Gs) = 0.0232283
DICPCG:  Solving for T, Initial residual = 0.0456719, Final residual = 6.29414e-05, No Iterations 1
GAMG:  Solving for p_rgh, Initial residual = 0, Final residual = 0, No Iterations 0
time step continuity errors : sum local = 0, global = 0, cumulative = 0
DILUPBiCGStab:  Solving for omega, Initial residual = 9.71823e-05, Final residual = 3.3626e-07, No Iterations 1
DILUPBiCGStab:  Solving for k, Initial residual = 0.00296841, Final residual = 1.57053e-05, No Iterations 1
ExecutionTime = 1.01666 s  ClockTime = 1 s

Courant Number mean: 0 max: 0
Time = 1.2s

DICPCG:  Solving for w, Initial residual = 0.0173655, Final residual = 2.7528e-05, No Iterations 1
Global Volume-Averaged Solid Fraction (Gs) = 0.0232283
DICPCG:  Solving for T, Initial residual = 0.0432241, Final residual = 5.99912e-05, No Iterations 1
GAMG:  Solving for p_rgh, Initial residual = 0, Final residual = 0, No Iterations 0
time step continuity errors : sum local = 0, global = 0, cumulative = 0
DILUPBiCGStab:  Solving for omega, Initial residual = 9.58426e-05, Final residual = 2.94643e-07, No Iterations 1
DILUPBiCGStab:  Solving for k, Initial residual = 0.00301526, Final residual = 1.47698e-05, No Iterations 1
ExecutionTime = 1.07485 s  ClockTime = 1 s

Courant Number mean: 0 max: 0
Time = 1.3s

DICPCG:  Solving for w, Initial residual = 0.0155194, Final residual = 2.47895e-05, No Iterations 1
Global Volume-Averaged Solid Fraction (Gs) = 0.0232283
DICPCG:  Solving for T, Initial residual = 0.0404229, Final residual = 5.60846e-05, No Iterations 1
GAMG:  Solving for p_rgh, Initial residual = 0, Final residual = 0, No Iterations 0
time step continuity errors : sum local = 0, global = 0, cumulative = 0
DILUPBiCGStab:  Solving for omega, Initial residual = 9.58965e-05, Final residual = 2.88541e-07, No Iterations 1
DILUPBiCGStab:  Solving for k, Initial residual = 0.0030706, Final residual = 1.41447e-05, No Iterations 1
ExecutionTime = 1.1337 s  ClockTime = 1 s

Courant Number mean: 0 max: 0
Time = 1.4s

DICPCG:  Solving for w, Initial residual = 0.0144194, Final residual = 2.30733e-05, No Iterations 1
Global Volume-Averaged Solid Fraction (Gs) = 0.0232283
DICPCG:  Solving for T, Initial residual = 0.0377743, Final residual = 5.27897e-05, No Iterations 1
GAMG:  Solving for p_rgh, Initial residual = 0, Final residual = 0, No Iterations 0
time step continuity errors : sum local = 0, global = 0, cumulative = 0
DILUPBiCGStab:  Solving for omega, Initial residual = 9.59573e-05, Final residual = 2.86012e-07, No Iterations 1
DILUPBiCGStab:  Solving for k, Initial residual = 0.00312783, Final residual = 1.3632e-05, No Iterations 1
ExecutionTime = 1.19439 s  ClockTime = 1 s

Courant Number mean: 0 max: 0
Time = 1.5s

DICPCG:  Solving for w, Initial residual = 0.0134388, Final residual = 2.15629e-05, No Iterations 1
Global Volume-Averaged Solid Fraction (Gs) = 0.0232283
DICPCG:  Solving for T, Initial residual = 0.0353479, Final residual = 4.92484e-05, No Iterations 1
GAMG:  Solving for p_rgh, Initial residual = 0, Final residual = 0, No Iterations 0
time step continuity errors : sum local = 0, global = 0, cumulative = 0
DILUPBiCGStab:  Solving for omega, Initial residual = 9.56911e-05, Final residual = 2.80518e-07, No Iterations 1
DILUPBiCGStab:  Solving for k, Initial residual = 0.00319163, Final residual = 1.33682e-05, No Iterations 1
ExecutionTime = 1.25194 s  ClockTime = 1 s

Courant Number mean: 0 max: 0
Time = 1.6s

DICPCG:  Solving for w, Initial residual = 0.0124237, Final residual = 1.99725e-05, No Iterations 1
Global Volume-Averaged Solid Fraction (Gs) = 0.0232283
DICPCG:  Solving for T, Initial residual = 0.033251, Final residual = 4.68167e-05, No Iterations 1
GAMG:  Solving for p_rgh, Initial residual = 0, Final residual = 0, No Iterations 0
time step continuity errors : sum local = 0, global = 0, cumulative = 0
DILUPBiCGStab:  Solving for omega, Initial residual = 9.51561e-05, Final residual = 2.73507e-07, No Iterations 1
DILUPBiCGStab:  Solving for k, Initial residual = 0.00326061, Final residual = 1.2854e-05, No Iterations 1
ExecutionTime = 1.31262 s  ClockTime = 1 s

Courant Number mean: 0 max: 0
Time = 1.7s

DICPCG:  Solving for w, Initial residual = 0.0112861, Final residual = 1.82013e-05, No Iterations 1
Global Volume-Averaged Solid Fraction (Gs) = 0.0232283
DICPCG:  Solving for T, Initial residual = 0.0315842, Final residual = 4.44633e-05, No Iterations 1
GAMG:  Solving for p_rgh, Initial residual = 0, Final residual = 0, No Iterations 0
time step continuity errors : sum local = 0, global = 0, cumulative = 0
DILUPBiCGStab:  Solving for omega, Initial residual = 9.44135e-05, Final residual = 2.65437e-07, No Iterations 1
DILUPBiCGStab:  Solving for k, Initial residual = 0.00333248, Final residual = 1.25364e-05, No Iterations 1
ExecutionTime = 1.37085 s  ClockTime = 1 s

Courant Number mean: 0 max: 0
Time = 1.8s

DICPCG:  Solving for w, Initial residual = 0.0107131, Final residual = 1.73119e-05, No Iterations 1
Global Volume-Averaged Solid Fraction (Gs) = 0.0232283
DICPCG:  Solving for T, Initial residual = 0.0301206, Final residual = 4.25348e-05, No Iterations 1
GAMG:  Solving for p_rgh, Initial residual = 0, Final residual = 0, No Iterations 0
time step continuity errors : sum local = 0, global = 0, cumulative = 0
DILUPBiCGStab:  Solving for omega, Initial residual = 9.35183e-05, Final residual = 2.57179e-07, No Iterations 1
DILUPBiCGStab:  Solving for k, Initial residual = 0.00340471, Final residual = 1.22186e-05, No Iterations 1
ExecutionTime = 1.42996 s  ClockTime = 1 s

Courant Number mean: 0 max: 0
Time = 1.9s

DICPCG:  Solving for w, Initial residual = 0.0100472, Final residual = 1.62481e-05, No Iterations 1
Global Volume-Averaged Solid Fraction (Gs) = 0.0232283
DICPCG:  Solving for T, Initial residual = 0.0285342, Final residual = 4.01531e-05, No Iterations 1
GAMG:  Solving for p_rgh, Initial residual = 0, Final residual = 0, No Iterations 0
time step continuity errors : sum local = 0, global = 0, cumulative = 0
DILUPBiCGStab:  Solving for omega, Initial residual = 9.25074e-05, Final residual = 2.4846e-07, No Iterations 1
DILUPBiCGStab:  Solving for k, Initial residual = 0.00348171, Final residual = 1.20738e-05, No Iterations 1
ExecutionTime = 1.48816 s  ClockTime = 1 s

Courant Number mean: 0 max: 0
Time = 2s

DICPCG:  Solving for w, Initial residual = 0.00950903, Final residual = 1.53675e-05, No Iterations 1
Global Volume-Averaged Solid Fraction (Gs) = 0.0232283
DICPCG:  Solving for T, Initial residual = 0.0275398, Final residual = 3.88433e-05, No Iterations 1
GAMG:  Solving for p_rgh, Initial residual = 0, Final residual = 0, No Iterations 0
time step continuity errors : sum local = 0, global = 0, cumulative = 0
DILUPBiCGStab:  Solving for omega, Initial residual = 9.14364e-05, Final residual = 2.39944e-07, No Iterations 1
DILUPBiCGStab:  Solving for k, Initial residual = 0.00356224, Final residual = 1.16256e-05, No Iterations 1
ExecutionTime = 1.64282 s  ClockTime = 1 s

Courant Number mean: 0 max: 0
Time = 2.1s

DICPCG:  Solving for w, Initial residual = 0.00881002, Final residual = 1.42124e-05, No Iterations 1
Global Volume-Averaged Solid Fraction (Gs) = 0.0232283
DICPCG:  Solving for T, Initial residual = 0.026184, Final residual = 3.69263e-05, No Iterations 1
GAMG:  Solving for p_rgh, Initial residual = 0, Final residual = 0, No Iterations 0
time step continuity errors : sum local = 0, global = 0, cumulative = 0
DILUPBiCGStab:  Solving for omega, Initial residual = 9.02923e-05, Final residual = 2.32132e-07, No Iterations 1
DILUPBiCGStab:  Solving for k, Initial residual = 0.00364297, Final residual = 1.13653e-05, No Iterations 1
ExecutionTime = 1.70173 s  ClockTime = 2 s

Courant Number mean: 0 max: 0
Time = 2.2s

DICPCG:  Solving for w, Initial residual = 0.00835805, Final residual = 1.34657e-05, No Iterations 1
Global Volume-Averaged Solid Fraction (Gs) = 0.0232283
DICPCG:  Solving for T, Initial residual = 0.0252945, Final residual = 3.59344e-05, No Iterations 1
GAMG:  Solving for p_rgh, Initial residual = 0, Final residual = 0, No Iterations 0
time step continuity errors : sum local = 0, global = 0, cumulative = 0
DILUPBiCGStab:  Solving for omega, Initial residual = 8.90877e-05, Final residual = 2.24108e-07, No Iterations 1
DILUPBiCGStab:  Solving for k, Initial residual = 0.00372873, Final residual = 1.12727e-05, No Iterations 1
ExecutionTime = 1.7584 s  ClockTime = 2 s

Courant Number mean: 0 max: 0
Time = 2.3s

DICPCG:  Solving for w, Initial residual = 0.00803294, Final residual = 1.30017e-05, No Iterations 1
Global Volume-Averaged Solid Fraction (Gs) = 0.0232283
DICPCG:  Solving for T, Initial residual = 0.0242505, Final residual = 3.41931e-05, No Iterations 1
GAMG:  Solving for p_rgh, Initial residual = 0, Final residual = 0, No Iterations 0
time step continuity errors : sum local = 0, global = 0, cumulative = 0
DILUPBiCGStab:  Solving for omega, Initial residual = 8.78564e-05, Final residual = 2.16335e-07, No Iterations 1
DILUPBiCGStab:  Solving for k, Initial residual = 0.00381732, Final residual = 1.0905e-05, No Iterations 1
ExecutionTime = 1.81512 s  ClockTime = 2 s

Courant Number mean: 0 max: 0
Time = 2.4s

DICPCG:  Solving for w, Initial residual = 0.00778569, Final residual = 1.25398e-05, No Iterations 1
Global Volume-Averaged Solid Fraction (Gs) = 0.0232283
DICPCG:  Solving for T, Initial residual = 0.0238069, Final residual = 3.38047e-05, No Iterations 1
GAMG:  Solving for p_rgh, Initial residual = 0, Final residual = 0, No Iterations 0
time step continuity errors : sum local = 0, global = 0, cumulative = 0
DILUPBiCGStab:  Solving for omega, Initial residual = 8.65726e-05, Final residual = 2.08687e-07, No Iterations 1
DILUPBiCGStab:  Solving for k, Initial residual = 0.00390519, Final residual = 1.06887e-05, No Iterations 1
ExecutionTime = 1.8724 s  ClockTime = 2 s

Courant Number mean: 0 max: 0
Time = 2.5s

DICPCG:  Solving for w, Initial residual = 0.0073006, Final residual = 1.17685e-05, No Iterations 1
Global Volume-Averaged Solid Fraction (Gs) = 0.0232283
DICPCG:  Solving for T, Initial residual = 0.0231571, Final residual = 3.25494e-05, No Iterations 1
GAMG:  Solving for p_rgh, Initial residual = 0, Final residual = 0, No Iterations 0
time step continuity errors : sum local = 0, global = 0, cumulative = 0
DILUPBiCGStab:  Solving for omega, Initial residual = 8.52506e-05, Final residual = 2.01669e-07, No Iterations 1
DILUPBiCGStab:  Solving for k, Initial residual = 0.00399792, Final residual = 1.06292e-05, No Iterations 1
ExecutionTime = 1.92955 s  ClockTime = 2 s

Courant Number mean: 0 max: 0
Time = 2.6s

DICPCG:  Solving for w, Initial residual = 0.00704937, Final residual = 1.13373e-05, No Iterations 1
Global Volume-Averaged Solid Fraction (Gs) = 0.0232283
DICPCG:  Solving for T, Initial residual = 0.0227538, Final residual = 3.19907e-05, No Iterations 1
GAMG:  Solving for p_rgh, Initial residual = 0, Final residual = 0, No Iterations 0
time step continuity errors : sum local = 0, global = 0, cumulative = 0
DILUPBiCGStab:  Solving for omega, Initial residual = 8.3915e-05, Final residual = 1.94749e-07, No Iterations 1
DILUPBiCGStab:  Solving for k, Initial residual = 0.00409312, Final residual = 1.03119e-05, No Iterations 1
ExecutionTime = 1.98598 s  ClockTime = 2 s

Courant Number mean: 0 max: 0
Time = 2.7s

DICPCG:  Solving for w, Initial residual = 0.00650088, Final residual = 1.0497e-05, No Iterations 1
Global Volume-Averaged Solid Fraction (Gs) = 0.0232283
DICPCG:  Solving for T, Initial residual = 0.0220447, Final residual = 3.11818e-05, No Iterations 1
GAMG:  Solving for p_rgh, Initial residual = 0, Final residual = 0, No Iterations 0
time step continuity errors : sum local = 0, global = 0, cumulative = 0
DILUPBiCGStab:  Solving for omega, Initial residual = 8.25348e-05, Final residual = 1.87942e-07, No Iterations 1
DILUPBiCGStab:  Solving for k, Initial residual = 0.00418673, Final residual = 1.01392e-05, No Iterations 1
ExecutionTime = 2.04381 s  ClockTime = 2 s

Courant Number mean: 0 max: 0
Time = 2.8s

DICPCG:  Solving for w, Initial residual = 0.00631472, Final residual = 1.01792e-05, No Iterations 1
Global Volume-Averaged Solid Fraction (Gs) = 0.0232283
DICPCG:  Solving for T, Initial residual = 0.0215339, Final residual = 3.03948e-05, No Iterations 1
GAMG:  Solving for p_rgh, Initial residual = 0, Final residual = 0, No Iterations 0
time step continuity errors : sum local = 0, global = 0, cumulative = 0
DILUPBiCGStab:  Solving for omega, Initial residual = 8.11316e-05, Final residual = 1.81544e-07, No Iterations 1
DILUPBiCGStab:  Solving for k, Initial residual = 0.00428531, Final residual = 1.01156e-05, No Iterations 1
ExecutionTime = 2.10306 s  ClockTime = 2 s

Courant Number mean: 0 max: 0
Time = 2.9s

DICPCG:  Solving for w, Initial residual = 0.00603515, Final residual = 9.74953e-06, No Iterations 1
Global Volume-Averaged Solid Fraction (Gs) = 0.0232283
DICPCG:  Solving for T, Initial residual = 0.0209179, Final residual = 2.95666e-05, No Iterations 1
GAMG:  Solving for p_rgh, Initial residual = 0, Final residual = 0, No Iterations 0
time step continuity errors : sum local = 0, global = 0, cumulative = 0
DILUPBiCGStab:  Solving for omega, Initial residual = 7.97274e-05, Final residual = 1.75402e-07, No Iterations 1
DILUPBiCGStab:  Solving for k, Initial residual = 0.00438598, Final residual = 9.83562e-06, No Iterations 1
ExecutionTime = 2.16214 s  ClockTime = 2 s

Courant Number mean: 0 max: 0
Time = 3s

DICPCG:  Solving for w, Initial residual = 0.00567592, Final residual = 9.113e-06, No Iterations 1
Global Volume-Averaged Solid Fraction (Gs) = 0.0232283
DICPCG:  Solving for T, Initial residual = 0.0205736, Final residual = 2.89158e-05, No Iterations 1
GAMG:  Solving for p_rgh, Initial residual = 0, Final residual = 0, No Iterations 0
time step continuity errors : sum local = 0, global = 0, cumulative = 0
DILUPBiCGStab:  Solving for omega, Initial residual = 7.82814e-05, Final residual = 1.69417e-07, No Iterations 1
DILUPBiCGStab:  Solving for k, Initial residual = 0.00448467, Final residual = 9.73539e-06, No Iterations 1
ExecutionTime = 2.31972 s  ClockTime = 2 s

Courant Number mean: 0 max: 0
Time = 3.1s

DICPCG:  Solving for w, Initial residual = 0.00524779, Final residual = 8.47269e-06, No Iterations 1
Global Volume-Averaged Solid Fraction (Gs) = 0.0232283
DICPCG:  Solving for T, Initial residual = 0.020107, Final residual = 2.84154e-05, No Iterations 1
GAMG:  Solving for p_rgh, Initial residual = 0, Final residual = 0, No Iterations 0
time step continuity errors : sum local = 0, global = 0, cumulative = 0
DILUPBiCGStab:  Solving for omega, Initial residual = 7.68209e-05, Final residual = 1.6386e-07, No Iterations 1
DILUPBiCGStab:  Solving for k, Initial residual = 0.00458785, Final residual = 9.70825e-06, No Iterations 1
ExecutionTime = 2.39022 s  ClockTime = 2 s

Courant Number mean: 0 max: 0
Time = 3.2s

DICPCG:  Solving for w, Initial residual = 0.00511013, Final residual = 8.25706e-06, No Iterations 1
Global Volume-Averaged Solid Fraction (Gs) = 0.0232283
DICPCG:  Solving for T, Initial residual = 0.0195766, Final residual = 2.75107e-05, No Iterations 1
GAMG:  Solving for p_rgh, Initial residual = 0, Final residual = 0, No Iterations 0
time step continuity errors : sum local = 0, global = 0, cumulative = 0
DILUPBiCGStab:  Solving for omega, Initial residual = 7.53564e-05, Final residual = 1.58577e-07, No Iterations 1
DILUPBiCGStab:  Solving for k, Initial residual = 0.0046928, Final residual = 9.46521e-06, No Iterations 1
ExecutionTime = 2.45989 s  ClockTime = 2 s

Courant Number mean: 0 max: 0
Time = 3.3s

DICPCG:  Solving for w, Initial residual = 0.00480832, Final residual = 7.77743e-06, No Iterations 1
Global Volume-Averaged Solid Fraction (Gs) = 0.0232283
DICPCG:  Solving for T, Initial residual = 0.0191409, Final residual = 2.69589e-05, No Iterations 1
GAMG:  Solving for p_rgh, Initial residual = 0, Final residual = 0, No Iterations 0
time step continuity errors : sum local = 0, global = 0, cumulative = 0
DILUPBiCGStab:  Solving for omega, Initial residual = 7.38539e-05, Final residual = 1.53489e-07, No Iterations 1
DILUPBiCGStab:  Solving for k, Initial residual = 0.00479528, Final residual = 9.42716e-06, No Iterations 1
ExecutionTime = 2.52564 s  ClockTime = 2 s

Courant Number mean: 0 max: 0
Time = 3.4s

DICPCG:  Solving for w, Initial residual = 0.00466158, Final residual = 7.50285e-06, No Iterations 1
Global Volume-Averaged Solid Fraction (Gs) = 0.0232283
DICPCG:  Solving for T, Initial residual = 0.0187348, Final residual = 2.65053e-05, No Iterations 1
GAMG:  Solving for p_rgh, Initial residual = 0, Final residual = 0, No Iterations 0
time step continuity errors : sum local = 0, global = 0, cumulative = 0
DILUPBiCGStab:  Solving for omega, Initial residual = 7.23458e-05, Final residual = 1.48631e-07, No Iterations 1
DILUPBiCGStab:  Solving for k, Initial residual = 0.004902, Final residual = 9.41772e-06, No Iterations 1
ExecutionTime = 2.58773 s  ClockTime = 2 s

Courant Number mean: 0 max: 0
Time = 3.5s

DICPCG:  Solving for w, Initial residual = 0.00456576, Final residual = 7.39191e-06, No Iterations 1
Global Volume-Averaged Solid Fraction (Gs) = 0.0232283
DICPCG:  Solving for T, Initial residual = 0.018655, Final residual = 2.62887e-05, No Iterations 1
GAMG:  Solving for p_rgh, Initial residual = 0, Final residual = 0, No Iterations 0
time step continuity errors : sum local = 0, global = 0, cumulative = 0
DILUPBiCGStab:  Solving for omega, Initial residual = 7.08117e-05, Final residual = 1.4394e-07, No Iterations 1
DILUPBiCGStab:  Solving for k, Initial residual = 0.00500628, Final residual = 9.24827e-06, No Iterations 1
ExecutionTime = 2.65903 s  ClockTime = 2 s

Courant Number mean: 0 max: 0
Time = 3.6s

DICPCG:  Solving for w, Initial residual = 0.00444058, Final residual = 7.17553e-06, No Iterations 1
Global Volume-Averaged Solid Fraction (Gs) = 0.0232283
DICPCG:  Solving for T, Initial residual = 0.0183402, Final residual = 2.59075e-05, No Iterations 1
GAMG:  Solving for p_rgh, Initial residual = 0, Final residual = 0, No Iterations 0
time step continuity errors : sum local = 0, global = 0, cumulative = 0
DILUPBiCGStab:  Solving for omega, Initial residual = 6.92806e-05, Final residual = 1.39434e-07, No Iterations 1
DILUPBiCGStab:  Solving for k, Initial residual = 0.00511499, Final residual = 9.28121e-06, No Iterations 1
ExecutionTime = 2.72367 s  ClockTime = 3 s

Courant Number mean: 0 max: 0
Time = 3.7s

DICPCG:  Solving for w, Initial residual = 0.00426993, Final residual = 6.93616e-06, No Iterations 1
Global Volume-Averaged Solid Fraction (Gs) = 0.0232283
DICPCG:  Solving for T, Initial residual = 0.0180124, Final residual = 2.54714e-05, No Iterations 1
GAMG:  Solving for p_rgh, Initial residual = 0, Final residual = 0, No Iterations 0
time step continuity errors : sum local = 0, global = 0, cumulative = 0
DILUPBiCGStab:  Solving for omega, Initial residual = 6.77586e-05, Final residual = 1.35141e-07, No Iterations 1
DILUPBiCGStab:  Solving for k, Initial residual = 0.0052252, Final residual = 9.055e-06, No Iterations 1
ExecutionTime = 2.78762 s  ClockTime = 3 s

Courant Number mean: 0 max: 0
Time = 3.8s

DICPCG:  Solving for w, Initial residual = 0.00412812, Final residual = 6.70234e-06, No Iterations 1
Global Volume-Averaged Solid Fraction (Gs) = 0.0232283
DICPCG:  Solving for T, Initial residual = 0.0179737, Final residual = 2.55442e-05, No Iterations 1
GAMG:  Solving for p_rgh, Initial residual = 0, Final residual = 0, No Iterations 0
time step continuity errors : sum local = 0, global = 0, cumulative = 0
DILUPBiCGStab:  Solving for omega, Initial residual = 6.62016e-05, Final residual = 1.30922e-07, No Iterations 1
DILUPBiCGStab:  Solving for k, Initial residual = 0.00533209, Final residual = 9.07886e-06, No Iterations 1
ExecutionTime = 2.85072 s  ClockTime = 3 s

Courant Number mean: 0 max: 0
Time = 3.9s

DICPCG:  Solving for w, Initial residual = 0.00391057, Final residual = 6.37265e-06, No Iterations 1
Global Volume-Averaged Solid Fraction (Gs) = 0.0232283
DICPCG:  Solving for T, Initial residual = 0.0174706, Final residual = 2.4577e-05, No Iterations 1
GAMG:  Solving for p_rgh, Initial residual = 0, Final residual = 0, No Iterations 0
time step continuity errors : sum local = 0, global = 0, cumulative = 0
DILUPBiCGStab:  Solving for omega, Initial residual = 6.46522e-05, Final residual = 1.26869e-07, No Iterations 1
DILUPBiCGStab:  Solving for k, Initial residual = 0.00544298, Final residual = 9.08438e-06, No Iterations 1
ExecutionTime = 2.91374 s  ClockTime = 3 s

Courant Number mean: 0 max: 0
Time = 4s

DICPCG:  Solving for w, Initial residual = 0.0036955, Final residual = 5.97948e-06, No Iterations 1
Global Volume-Averaged Solid Fraction (Gs) = 0.0232283
DICPCG:  Solving for T, Initial residual = 0.0174671, Final residual = 2.47086e-05, No Iterations 1
GAMG:  Solving for p_rgh, Initial residual = 0, Final residual = 0, No Iterations 0
time step continuity errors : sum local = 0, global = 0, cumulative = 0
DILUPBiCGStab:  Solving for omega, Initial residual = 6.30807e-05, Final residual = 1.23002e-07, No Iterations 1
DILUPBiCGStab:  Solving for k, Initial residual = 0.005551, Final residual = 8.9849e-06, No Iterations 1
ExecutionTime = 3.08166 s  ClockTime = 3 s

Courant Number mean: 0 max: 0
Time = 4.1s

DICPCG:  Solving for w, Initial residual = 0.00366206, Final residual = 5.93361e-06, No Iterations 1
Global Volume-Averaged Solid Fraction (Gs) = 0.0232283
DICPCG:  Solving for T, Initial residual = 0.0171291, Final residual = 2.41163e-05, No Iterations 1
GAMG:  Solving for p_rgh, Initial residual = 0, Final residual = 0, No Iterations 0
time step continuity errors : sum local = 0, global = 0, cumulative = 0
DILUPBiCGStab:  Solving for omega, Initial residual = 6.14925e-05, Final residual = 1.194e-07, No Iterations 1
DILUPBiCGStab:  Solving for k, Initial residual = 0.00565844, Final residual = 9.01639e-06, No Iterations 1
ExecutionTime = 3.15142 s  ClockTime = 3 s

Courant Number mean: 0 max: 0
Time = 4.2s

DICPCG:  Solving for w, Initial residual = 0.00345753, Final residual = 5.58796e-06, No Iterations 1
Global Volume-Averaged Solid Fraction (Gs) = 0.0232283
DICPCG:  Solving for T, Initial residual = 0.01679, Final residual = 2.3536e-05, No Iterations 1
GAMG:  Solving for p_rgh, Initial residual = 0, Final residual = 0, No Iterations 0
time step continuity errors : sum local = 0, global = 0, cumulative = 0
DILUPBiCGStab:  Solving for omega, Initial residual = 5.99025e-05, Final residual = 1.15908e-07, No Iterations 1
DILUPBiCGStab:  Solving for k, Initial residual = 0.00576652, Final residual = 9.01254e-06, No Iterations 1
ExecutionTime = 3.2133 s  ClockTime = 3 s

Courant Number mean: 0 max: 0
Time = 4.3s

DICPCG:  Solving for w, Initial residual = 0.00327292, Final residual = 5.30964e-06, No Iterations 1
Global Volume-Averaged Solid Fraction (Gs) = 0.0232283
DICPCG:  Solving for T, Initial residual = 0.0164992, Final residual = 2.30428e-05, No Iterations 1
GAMG:  Solving for p_rgh, Initial residual = 0, Final residual = 0, No Iterations 0
time step continuity errors : sum local = 0, global = 0, cumulative = 0
DILUPBiCGStab:  Solving for omega, Initial residual = 5.83136e-05, Final residual = 1.12429e-07, No Iterations 1
DILUPBiCGStab:  Solving for k, Initial residual = 0.00587512, Final residual = 9.00897e-06, No Iterations 1
ExecutionTime = 3.27273 s  ClockTime = 3 s

Courant Number mean: 0 max: 0
Time = 4.4s

DICPCG:  Solving for w, Initial residual = 0.00309817, Final residual = 5.00931e-06, No Iterations 1
Global Volume-Averaged Solid Fraction (Gs) = 0.0232283
DICPCG:  Solving for T, Initial residual = 0.0162778, Final residual = 2.2692e-05, No Iterations 1
GAMG:  Solving for p_rgh, Initial residual = 0, Final residual = 0, No Iterations 0
time step continuity errors : sum local = 0, global = 0, cumulative = 0
DILUPBiCGStab:  Solving for omega, Initial residual = 5.67135e-05, Final residual = 1.08533e-07, No Iterations 1
DILUPBiCGStab:  Solving for k, Initial residual = 0.00598204, Final residual = 8.93826e-06, No Iterations 1
ExecutionTime = 3.33084 s  ClockTime = 3 s

Courant Number mean: 0 max: 0
Time = 4.5s

DICPCG:  Solving for w, Initial residual = 0.00295612, Final residual = 4.79386e-06, No Iterations 1
Global Volume-Averaged Solid Fraction (Gs) = 0.0232283
DICPCG:  Solving for T, Initial residual = 0.0161716, Final residual = 2.26236e-05, No Iterations 1
GAMG:  Solving for p_rgh, Initial residual = 0, Final residual = 0, No Iterations 0
time step continuity errors : sum local = 0, global = 0, cumulative = 0
DILUPBiCGStab:  Solving for omega, Initial residual = 5.51687e-05, Final residual = 1.049e-07, No Iterations 1
DILUPBiCGStab:  Solving for k, Initial residual = 0.00609644, Final residual = 8.92251e-06, No Iterations 1
ExecutionTime = 3.39053 s  ClockTime = 3 s

Courant Number mean: 0 max: 0
Time = 4.6s

DICPCG:  Solving for w, Initial residual = 0.0030153, Final residual = 4.88578e-06, No Iterations 1
Global Volume-Averaged Solid Fraction (Gs) = 0.0232283
DICPCG:  Solving for T, Initial residual = 0.0159285, Final residual = 2.22399e-05, No Iterations 1
GAMG:  Solving for p_rgh, Initial residual = 0, Final residual = 0, No Iterations 0
time step continuity errors : sum local = 0, global = 0, cumulative = 0
DILUPBiCGStab:  Solving for omega, Initial residual = 5.3643e-05, Final residual = 1.01787e-07, No Iterations 1
DILUPBiCGStab:  Solving for k, Initial residual = 0.00621195, Final residual = 8.87948e-06, No Iterations 1
ExecutionTime = 3.45018 s  ClockTime = 3 s

Courant Number mean: 0 max: 0
Time = 4.7s

DICPCG:  Solving for w, Initial residual = 0.00292608, Final residual = 4.74581e-06, No Iterations 1
Global Volume-Averaged Solid Fraction (Gs) = 0.0232283
DICPCG:  Solving for T, Initial residual = 0.0157164, Final residual = 2.20249e-05, No Iterations 1
GAMG:  Solving for p_rgh, Initial residual = 0, Final residual = 0, No Iterations 0
time step continuity errors : sum local = 0, global = 0, cumulative = 0
DILUPBiCGStab:  Solving for omega, Initial residual = 5.21219e-05, Final residual = 9.88215e-08, No Iterations 1
DILUPBiCGStab:  Solving for k, Initial residual = 0.00632702, Final residual = 8.83637e-06, No Iterations 1
ExecutionTime = 3.50931 s  ClockTime = 3 s

Courant Number mean: 0 max: 0
Time = 4.8s

DICPCG:  Solving for w, Initial residual = 0.00279488, Final residual = 4.49417e-06, No Iterations 1
Global Volume-Averaged Solid Fraction (Gs) = 0.0232283
DICPCG:  Solving for T, Initial residual = 0.0156931, Final residual = 2.19381e-05, No Iterations 1
GAMG:  Solving for p_rgh, Initial residual = 0, Final residual = 0, No Iterations 0
time step continuity errors : sum local = 0, global = 0, cumulative = 0
DILUPBiCGStab:  Solving for omega, Initial residual = 5.06063e-05, Final residual = 9.60628e-08, No Iterations 1
DILUPBiCGStab:  Solving for k, Initial residual = 0.00644166, Final residual = 8.79365e-06, No Iterations 1
ExecutionTime = 3.56864 s  ClockTime = 3 s

Courant Number mean: 0 max: 0
Time = 4.9s

DICPCG:  Solving for w, Initial residual = 0.0027184, Final residual = 4.38162e-06, No Iterations 1
Global Volume-Averaged Solid Fraction (Gs) = 0.0232283
DICPCG:  Solving for T, Initial residual = 0.0152753, Final residual = 2.13703e-05, No Iterations 1
GAMG:  Solving for p_rgh, Initial residual = 0, Final residual = 0, No Iterations 0
time step continuity errors : sum local = 0, global = 0, cumulative = 0
DILUPBiCGStab:  Solving for omega, Initial residual = 4.90978e-05, Final residual = 9.34379e-08, No Iterations 1
DILUPBiCGStab:  Solving for k, Initial residual = 0.00655582, Final residual = 8.75185e-06, No Iterations 1
ExecutionTime = 3.63147 s  ClockTime = 3 s

Courant Number mean: 0 max: 0
Time = 5s

DICPCG:  Solving for w, Initial residual = 0.00263004, Final residual = 4.25536e-06, No Iterations 1
Global Volume-Averaged Solid Fraction (Gs) = 0.0232283
DICPCG:  Solving for T, Initial residual = 0.0150993, Final residual = 2.1053e-05, No Iterations 1
GAMG:  Solving for p_rgh, Initial residual = 0, Final residual = 0, No Iterations 0
time step continuity errors : sum local = 0, global = 0, cumulative = 0
DILUPBiCGStab:  Solving for omega, Initial residual = 4.7598e-05, Final residual = 9.10815e-08, No Iterations 1
DILUPBiCGStab:  Solving for k, Initial residual = 0.00666941, Final residual = 8.71102e-06, No Iterations 1
ExecutionTime = 3.79703 s  ClockTime = 4 s

Courant Number mean: 0 max: 0
Time = 5.1s

DICPCG:  Solving for w, Initial residual = 0.00252158, Final residual = 4.0636e-06, No Iterations 1
Global Volume-Averaged Solid Fraction (Gs) = 0.0232283
DICPCG:  Solving for T, Initial residual = 0.0148498, Final residual = 2.06759e-05, No Iterations 1
GAMG:  Solving for p_rgh, Initial residual = 0, Final residual = 0, No Iterations 0
time step continuity errors : sum local = 0, global = 0, cumulative = 0
DILUPBiCGStab:  Solving for omega, Initial residual = 4.61141e-05, Final residual = 8.89064e-08, No Iterations 1
DILUPBiCGStab:  Solving for k, Initial residual = 0.00678239, Final residual = 8.67167e-06, No Iterations 1
ExecutionTime = 3.85664 s  ClockTime = 4 s

Courant Number mean: 0 max: 0
Time = 5.2s

DICPCG:  Solving for w, Initial residual = 0.00247569, Final residual = 3.99159e-06, No Iterations 1
Global Volume-Averaged Solid Fraction (Gs) = 0.0232283
DICPCG:  Solving for T, Initial residual = 0.0146446, Final residual = 2.03897e-05, No Iterations 1
GAMG:  Solving for p_rgh, Initial residual = 0, Final residual = 0, No Iterations 0
time step continuity errors : sum local = 0, global = 0, cumulative = 0
DILUPBiCGStab:  Solving for omega, Initial residual = 4.46456e-05, Final residual = 8.70467e-08, No Iterations 1
DILUPBiCGStab:  Solving for k, Initial residual = 0.00689467, Final residual = 8.63414e-06, No Iterations 1
ExecutionTime = 3.91662 s  ClockTime = 4 s

Courant Number mean: 0 max: 0
Time = 5.3s

DICPCG:  Solving for w, Initial residual = 0.00240169, Final residual = 3.85737e-06, No Iterations 1
Global Volume-Averaged Solid Fraction (Gs) = 0.0232283
DICPCG:  Solving for T, Initial residual = 0.0144619, Final residual = 2.02514e-05, No Iterations 1
GAMG:  Solving for p_rgh, Initial residual = 0, Final residual = 0, No Iterations 0
time step continuity errors : sum local = 0, global = 0, cumulative = 0
DILUPBiCGStab:  Solving for omega, Initial residual = 4.31893e-05, Final residual = 8.55098e-08, No Iterations 1
DILUPBiCGStab:  Solving for k, Initial residual = 0.00700614, Final residual = 8.59951e-06, No Iterations 1
ExecutionTime = 3.97525 s  ClockTime = 4 s

Courant Number mean: 0 max: 0
Time = 5.4s

DICPCG:  Solving for w, Initial residual = 0.00234538, Final residual = 3.7583e-06, No Iterations 1
Global Volume-Averaged Solid Fraction (Gs) = 0.0232283
DICPCG:  Solving for T, Initial residual = 0.0143953, Final residual = 2.0065e-05, No Iterations 1
GAMG:  Solving for p_rgh, Initial residual = 0, Final residual = 0, No Iterations 0
time step continuity errors : sum local = 0, global = 0, cumulative = 0
DILUPBiCGStab:  Solving for omega, Initial residual = 4.17462e-05, Final residual = 8.41352e-08, No Iterations 1
DILUPBiCGStab:  Solving for k, Initial residual = 0.0071167, Final residual = 8.5663e-06, No Iterations 1
ExecutionTime = 4.0351 s  ClockTime = 4 s

Courant Number mean: 0 max: 0
Time = 5.5s

DICPCG:  Solving for w, Initial residual = 0.00224374, Final residual = 3.62309e-06, No Iterations 1
Global Volume-Averaged Solid Fraction (Gs) = 0.0232283
DICPCG:  Solving for T, Initial residual = 0.0141361, Final residual = 1.96621e-05, No Iterations 1
GAMG:  Solving for p_rgh, Initial residual = 0, Final residual = 0, No Iterations 0
time step continuity errors : sum local = 0, global = 0, cumulative = 0
DILUPBiCGStab:  Solving for omega, Initial residual = 4.03179e-05, Final residual = 8.28548e-08, No Iterations 1
DILUPBiCGStab:  Solving for k, Initial residual = 0.00722635, Final residual = 8.53297e-06, No Iterations 1
ExecutionTime = 4.0933 s  ClockTime = 4 s

Courant Number mean: 0 max: 0
Time = 5.6s

DICPCG:  Solving for w, Initial residual = 0.00215954, Final residual = 3.43998e-06, No Iterations 1
Global Volume-Averaged Solid Fraction (Gs) = 0.0232283
DICPCG:  Solving for T, Initial residual = 0.0140037, Final residual = 1.94494e-05, No Iterations 1
GAMG:  Solving for p_rgh, Initial residual = 0, Final residual = 0, No Iterations 0
time step continuity errors : sum local = 0, global = 0, cumulative = 0
DILUPBiCGStab:  Solving for omega, Initial residual = 3.89042e-05, Final residual = 8.18674e-08, No Iterations 1
DILUPBiCGStab:  Solving for k, Initial residual = 0.00733502, Final residual = 8.49948e-06, No Iterations 1
ExecutionTime = 4.15883 s  ClockTime = 4 s

Courant Number mean: 0 max: 0
Time = 5.7s

DICPCG:  Solving for w, Initial residual = 0.00201436, Final residual = 3.23562e-06, No Iterations 1
Global Volume-Averaged Solid Fraction (Gs) = 0.0232283
DICPCG:  Solving for T, Initial residual = 0.0139107, Final residual = 1.93248e-05, No Iterations 1
GAMG:  Solving for p_rgh, Initial residual = 0, Final residual = 0, No Iterations 0
time step continuity errors : sum local = 0, global = 0, cumulative = 0
DILUPBiCGStab:  Solving for omega, Initial residual = 3.75061e-05, Final residual = 8.11258e-08, No Iterations 1
DILUPBiCGStab:  Solving for k, Initial residual = 0.00744248, Final residual = 8.4663e-06, No Iterations 1
ExecutionTime = 4.2154 s  ClockTime = 4 s

Courant Number mean: 0 max: 0
Time = 5.8s

DICPCG:  Solving for w, Initial residual = 0.00197209, Final residual = 3.1478e-06, No Iterations 1
Global Volume-Averaged Solid Fraction (Gs) = 0.0232283
DICPCG:  Solving for T, Initial residual = 0.0138288, Final residual = 1.9295e-05, No Iterations 1
GAMG:  Solving for p_rgh, Initial residual = 0, Final residual = 0, No Iterations 0
time step continuity errors : sum local = 0, global = 0, cumulative = 0
DILUPBiCGStab:  Solving for omega, Initial residual = 3.61246e-05, Final residual = 8.05846e-08, No Iterations 1
DILUPBiCGStab:  Solving for k, Initial residual = 0.00754848, Final residual = 8.43319e-06, No Iterations 1
ExecutionTime = 4.27323 s  ClockTime = 4 s

Courant Number mean: 0 max: 0
Time = 5.9s

DICPCG:  Solving for w, Initial residual = 0.00196158, Final residual = 3.12217e-06, No Iterations 1
Global Volume-Averaged Solid Fraction (Gs) = 0.0232283
DICPCG:  Solving for T, Initial residual = 0.01385, Final residual = 1.93097e-05, No Iterations 1
GAMG:  Solving for p_rgh, Initial residual = 0, Final residual = 0, No Iterations 0
time step continuity errors : sum local = 0, global = 0, cumulative = 0
DILUPBiCGStab:  Solving for omega, Initial residual = 3.47611e-05, Final residual = 8.01976e-08, No Iterations 1
DILUPBiCGStab:  Solving for k, Initial residual = 0.00765313, Final residual = 8.40009e-06, No Iterations 1
ExecutionTime = 4.33255 s  ClockTime = 4 s

Courant Number mean: 0 max: 0
Time = 6s

DICPCG:  Solving for w, Initial residual = 0.00183709, Final residual = 2.90529e-06, No Iterations 1
Global Volume-Averaged Solid Fraction (Gs) = 0.0232283
DICPCG:  Solving for T, Initial residual = 0.0137162, Final residual = 1.90092e-05, No Iterations 1
GAMG:  Solving for p_rgh, Initial residual = 0, Final residual = 0, No Iterations 0
time step continuity errors : sum local = 0, global = 0, cumulative = 0
DILUPBiCGStab:  Solving for omega, Initial residual = 3.34164e-05, Final residual = 8.00018e-08, No Iterations 1
DILUPBiCGStab:  Solving for k, Initial residual = 0.00775649, Final residual = 8.36703e-06, No Iterations 1
ExecutionTime = 4.48842 s  ClockTime = 4 s

Courant Number mean: 0 max: 0
Time = 6.1s

DICPCG:  Solving for w, Initial residual = 0.00175615, Final residual = 2.78673e-06, No Iterations 1
Global Volume-Averaged Solid Fraction (Gs) = 0.0232283
DICPCG:  Solving for T, Initial residual = 0.0136171, Final residual = 1.88479e-05, No Iterations 1
GAMG:  Solving for p_rgh, Initial residual = 0, Final residual = 0, No Iterations 0
time step continuity errors : sum local = 0, global = 0, cumulative = 0
DILUPBiCGStab:  Solving for omega, Initial residual = 3.20912e-05, Final residual = 7.98425e-08, No Iterations 1
DILUPBiCGStab:  Solving for k, Initial residual = 0.00785847, Final residual = 8.3338e-06, No Iterations 1
ExecutionTime = 4.54667 s  ClockTime = 4 s

Courant Number mean: 0 max: 0
Time = 6.2s

DICPCG:  Solving for w, Initial residual = 0.00174046, Final residual = 2.74784e-06, No Iterations 1
Global Volume-Averaged Solid Fraction (Gs) = 0.0232283
DICPCG:  Solving for T, Initial residual = 0.0135991, Final residual = 1.88971e-05, No Iterations 1
GAMG:  Solving for p_rgh, Initial residual = 0, Final residual = 0, No Iterations 0
time step continuity errors : sum local = 0, global = 0, cumulative = 0
DILUPBiCGStab:  Solving for omega, Initial residual = 3.07868e-05, Final residual = 7.97213e-08, No Iterations 1
DILUPBiCGStab:  Solving for k, Initial residual = 0.00795873, Final residual = 8.29992e-06, No Iterations 1
ExecutionTime = 4.60618 s  ClockTime = 4 s

Courant Number mean: 0 max: 0
Time = 6.3s

DICPCG:  Solving for w, Initial residual = 0.0016045, Final residual = 2.55418e-06, No Iterations 1
Global Volume-Averaged Solid Fraction (Gs) = 0.0232283
DICPCG:  Solving for T, Initial residual = 0.0134663, Final residual = 1.86761e-05, No Iterations 1
GAMG:  Solving for p_rgh, Initial residual = 0, Final residual = 0, No Iterations 0
time step continuity errors : sum local = 0, global = 0, cumulative = 0
DILUPBiCGStab:  Solving for omega, Initial residual = 2.95044e-05, Final residual = 7.9635e-08, No Iterations 1
DILUPBiCGStab:  Solving for k, Initial residual = 0.00805734, Final residual = 8.26534e-06, No Iterations 1
ExecutionTime = 4.66856 s  ClockTime = 5 s

Courant Number mean: 0 max: 0
Time = 6.4s

DICPCG:  Solving for w, Initial residual = 0.00155052, Final residual = 2.44749e-06, No Iterations 1
Global Volume-Averaged Solid Fraction (Gs) = 0.0232283
DICPCG:  Solving for T, Initial residual = 0.0134079, Final residual = 1.86344e-05, No Iterations 1
GAMG:  Solving for p_rgh, Initial residual = 0, Final residual = 0, No Iterations 0
time step continuity errors : sum local = 0, global = 0, cumulative = 0
DILUPBiCGStab:  Solving for omega, Initial residual = 2.82553e-05, Final residual = 7.95846e-08, No Iterations 1
DILUPBiCGStab:  Solving for k, Initial residual = 0.00815441, Final residual = 8.23064e-06, No Iterations 1
ExecutionTime = 4.72708 s  ClockTime = 5 s

Courant Number mean: 0 max: 0
Time = 6.5s

DICPCG:  Solving for w, Initial residual = 0.00152367, Final residual = 2.43256e-06, No Iterations 1
Global Volume-Averaged Solid Fraction (Gs) = 0.0232283
DICPCG:  Solving for T, Initial residual = 0.013259, Final residual = 1.84223e-05, No Iterations 1
GAMG:  Solving for p_rgh, Initial residual = 0, Final residual = 0, No Iterations 0
time step continuity errors : sum local = 0, global = 0, cumulative = 0
DILUPBiCGStab:  Solving for omega, Initial residual = 2.70285e-05, Final residual = 7.9558e-08, No Iterations 1
DILUPBiCGStab:  Solving for k, Initial residual = 0.00824989, Final residual = 8.1953e-06, No Iterations 1
ExecutionTime = 4.78444 s  ClockTime = 5 s

Courant Number mean: 0 max: 0
Time = 6.6s

DICPCG:  Solving for w, Initial residual = 0.00155539, Final residual = 2.46776e-06, No Iterations 1
Global Volume-Averaged Solid Fraction (Gs) = 0.0232283
DICPCG:  Solving for T, Initial residual = 0.0131161, Final residual = 1.82554e-05, No Iterations 1
GAMG:  Solving for p_rgh, Initial residual = 0, Final residual = 0, No Iterations 0
time step continuity errors : sum local = 0, global = 0, cumulative = 0
DILUPBiCGStab:  Solving for omega, Initial residual = 2.58251e-05, Final residual = 7.95846e-08, No Iterations 1
DILUPBiCGStab:  Solving for k, Initial residual = 0.00834372, Final residual = 8.16023e-06, No Iterations 1
ExecutionTime = 4.84393 s  ClockTime = 5 s

Courant Number mean: 0 max: 0
Time = 6.7s

DICPCG:  Solving for w, Initial residual = 0.00149698, Final residual = 2.38483e-06, No Iterations 1
Global Volume-Averaged Solid Fraction (Gs) = 0.0232283
DICPCG:  Solving for T, Initial residual = 0.0128979, Final residual = 1.78699e-05, No Iterations 1
GAMG:  Solving for p_rgh, Initial residual = 0, Final residual = 0, No Iterations 0
time step continuity errors : sum local = 0, global = 0, cumulative = 0
DILUPBiCGStab:  Solving for omega, Initial residual = 2.46455e-05, Final residual = 7.967e-08, No Iterations 1
DILUPBiCGStab:  Solving for k, Initial residual = 0.00843585, Final residual = 8.1255e-06, No Iterations 1
ExecutionTime = 4.91087 s  ClockTime = 5 s

Courant Number mean: 0 max: 0
Time = 6.8s

DICPCG:  Solving for w, Initial residual = 0.00146492, Final residual = 2.31885e-06, No Iterations 1
Global Volume-Averaged Solid Fraction (Gs) = 0.0232283
DICPCG:  Solving for T, Initial residual = 0.01297, Final residual = 1.79353e-05, No Iterations 1
GAMG:  Solving for p_rgh, Initial residual = 0, Final residual = 0, No Iterations 0
time step continuity errors : sum local = 0, global = 0, cumulative = 0
DILUPBiCGStab:  Solving for omega, Initial residual = 2.34904e-05, Final residual = 7.97324e-08, No Iterations 1
DILUPBiCGStab:  Solving for k, Initial residual = 0.00852622, Final residual = 8.09065e-06, No Iterations 1
ExecutionTime = 4.97322 s  ClockTime = 5 s

Courant Number mean: 0 max: 0
Time = 6.9s

DICPCG:  Solving for w, Initial residual = 0.00140388, Final residual = 2.23327e-06, No Iterations 1
Global Volume-Averaged Solid Fraction (Gs) = 0.0232283
DICPCG:  Solving for T, Initial residual = 0.0127854, Final residual = 1.76108e-05, No Iterations 1
GAMG:  Solving for p_rgh, Initial residual = 0, Final residual = 0, No Iterations 0
time step continuity errors : sum local = 0, global = 0, cumulative = 0
DILUPBiCGStab:  Solving for omega, Initial residual = 2.2361e-05, Final residual = 7.97922e-08, No Iterations 1
DILUPBiCGStab:  Solving for k, Initial residual = 0.00861479, Final residual = 8.05589e-06, No Iterations 1
ExecutionTime = 5.03398 s  ClockTime = 5 s

Courant Number mean: 0 max: 0
Time = 7s

DICPCG:  Solving for w, Initial residual = 0.00137915, Final residual = 2.17513e-06, No Iterations 1
Global Volume-Averaged Solid Fraction (Gs) = 0.0232283
DICPCG:  Solving for T, Initial residual = 0.0126214, Final residual = 1.74848e-05, No Iterations 1
GAMG:  Solving for p_rgh, Initial residual = 0, Final residual = 0, No Iterations 0
time step continuity errors : sum local = 0, global = 0, cumulative = 0
DILUPBiCGStab:  Solving for omega, Initial residual = 2.1257e-05, Final residual = 7.993e-08, No Iterations 1
DILUPBiCGStab:  Solving for k, Initial residual = 0.00870149, Final residual = 8.02183e-06, No Iterations 1
ExecutionTime = 5.18968 s  ClockTime = 5 s

Courant Number mean: 0 max: 0
Time = 7.1s

DICPCG:  Solving for w, Initial residual = 0.00135017, Final residual = 2.13708e-06, No Iterations 1
Global Volume-Averaged Solid Fraction (Gs) = 0.0232283
DICPCG:  Solving for T, Initial residual = 0.0126902, Final residual = 1.76623e-05, No Iterations 1
GAMG:  Solving for p_rgh, Initial residual = 0, Final residual = 0, No Iterations 0
time step continuity errors : sum local = 0, global = 0, cumulative = 0
DILUPBiCGStab:  Solving for omega, Initial residual = 2.01791e-05, Final residual = 8.00301e-08, No Iterations 1
DILUPBiCGStab:  Solving for k, Initial residual = 0.00878629, Final residual = 7.9883e-06, No Iterations 1
ExecutionTime = 5.2493 s  ClockTime = 5 s

Courant Number mean: 0 max: 0
Time = 7.2s

DICPCG:  Solving for w, Initial residual = 0.00133346, Final residual = 2.10144e-06, No Iterations 1
Global Volume-Averaged Solid Fraction (Gs) = 0.0232283
DICPCG:  Solving for T, Initial residual = 0.0125619, Final residual = 1.73521e-05, No Iterations 1
GAMG:  Solving for p_rgh, Initial residual = 0, Final residual = 0, No Iterations 0
time step continuity errors : sum local = 0, global = 0, cumulative = 0
DILUPBiCGStab:  Solving for omega, Initial residual = 1.91277e-05, Final residual = 8.00789e-08, No Iterations 1
DILUPBiCGStab:  Solving for k, Initial residual = 0.00886915, Final residual = 7.95571e-06, No Iterations 1
ExecutionTime = 5.30771 s  ClockTime = 5 s

Courant Number mean: 0 max: 0
Time = 7.3s

DICPCG:  Solving for w, Initial residual = 0.00128959, Final residual = 2.04902e-06, No Iterations 1
Global Volume-Averaged Solid Fraction (Gs) = 0.0232283
DICPCG:  Solving for T, Initial residual = 0.0125025, Final residual = 1.72931e-05, No Iterations 1
GAMG:  Solving for p_rgh, Initial residual = 0, Final residual = 0, No Iterations 0
time step continuity errors : sum local = 0, global = 0, cumulative = 0
DILUPBiCGStab:  Solving for omega, Initial residual = 1.81039e-05, Final residual = 8.0069e-08, No Iterations 1
DILUPBiCGStab:  Solving for k, Initial residual = 0.00895002, Final residual = 7.9239e-06, No Iterations 1
ExecutionTime = 5.36738 s  ClockTime = 5 s

Courant Number mean: 0 max: 0
Time = 7.4s

DICPCG:  Solving for w, Initial residual = 0.00128329, Final residual = 2.01596e-06, No Iterations 1
Global Volume-Averaged Solid Fraction (Gs) = 0.0232283
DICPCG:  Solving for T, Initial residual = 0.0125197, Final residual = 1.72793e-05, No Iterations 1
GAMG:  Solving for p_rgh, Initial residual = 0, Final residual = 0, No Iterations 0
time step continuity errors : sum local = 0, global = 0, cumulative = 0
DILUPBiCGStab:  Solving for omega, Initial residual = 1.71179e-05, Final residual = 7.99923e-08, No Iterations 1
DILUPBiCGStab:  Solving for k, Initial residual = 0.00902888, Final residual = 7.89313e-06, No Iterations 1
ExecutionTime = 5.42502 s  ClockTime = 5 s

Courant Number mean: 0 max: 0
Time = 7.5s

DICPCG:  Solving for w, Initial residual = 0.00125316, Final residual = 1.97313e-06, No Iterations 1
Global Volume-Averaged Solid Fraction (Gs) = 0.0232283
DICPCG:  Solving for T, Initial residual = 0.0124163, Final residual = 1.71636e-05, No Iterations 1
GAMG:  Solving for p_rgh, Initial residual = 0, Final residual = 0, No Iterations 0
time step continuity errors : sum local = 0, global = 0, cumulative = 0
DILUPBiCGStab:  Solving for omega, Initial residual = 1.61615e-05, Final residual = 7.99253e-08, No Iterations 1
DILUPBiCGStab:  Solving for k, Initial residual = 0.0091057, Final residual = 7.86396e-06, No Iterations 1
ExecutionTime = 5.48213 s  ClockTime = 5 s

Courant Number mean: 0 max: 0
Time = 7.6s

DICPCG:  Solving for w, Initial residual = 0.00122871, Final residual = 1.93798e-06, No Iterations 1
Global Volume-Averaged Solid Fraction (Gs) = 0.0232283
DICPCG:  Solving for T, Initial residual = 0.01231, Final residual = 1.70184e-05, No Iterations 1
GAMG:  Solving for p_rgh, Initial residual = 0, Final residual = 0, No Iterations 0
time step continuity errors : sum local = 0, global = 0, cumulative = 0
DILUPBiCGStab:  Solving for omega, Initial residual = 1.52321e-05, Final residual = 7.97337e-08, No Iterations 1
DILUPBiCGStab:  Solving for k, Initial residual = 0.00918043, Final residual = 7.83563e-06, No Iterations 1
ExecutionTime = 5.53956 s  ClockTime = 5 s

Courant Number mean: 0 max: 0
Time = 7.7s

DICPCG:  Solving for w, Initial residual = 0.00117231, Final residual = 1.85307e-06, No Iterations 1
Global Volume-Averaged Solid Fraction (Gs) = 0.0232283
DICPCG:  Solving for T, Initial residual = 0.0122867, Final residual = 1.69764e-05, No Iterations 1
GAMG:  Solving for p_rgh, Initial residual = 0, Final residual = 0, No Iterations 0
time step continuity errors : sum local = 0, global = 0, cumulative = 0
DILUPBiCGStab:  Solving for omega, Initial residual = 1.43302e-05, Final residual = 7.94068e-08, No Iterations 1
DILUPBiCGStab:  Solving for k, Initial residual = 0.00925306, Final residual = 7.80803e-06, No Iterations 1
ExecutionTime = 5.59639 s  ClockTime = 5 s

Courant Number mean: 0 max: 0
Time = 7.8s

DICPCG:  Solving for w, Initial residual = 0.00118261, Final residual = 1.86169e-06, No Iterations 1
Global Volume-Averaged Solid Fraction (Gs) = 0.0232283
DICPCG:  Solving for T, Initial residual = 0.0121719, Final residual = 1.68227e-05, No Iterations 1
GAMG:  Solving for p_rgh, Initial residual = 0, Final residual = 0, No Iterations 0
time step continuity errors : sum local = 0, global = 0, cumulative = 0
DILUPBiCGStab:  Solving for omega, Initial residual = 1.34553e-05, Final residual = 7.89341e-08, No Iterations 1
DILUPBiCGStab:  Solving for k, Initial residual = 0.00932344, Final residual = 7.78167e-06, No Iterations 1
ExecutionTime = 5.65686 s  ClockTime = 6 s

Courant Number mean: 0 max: 0
Time = 7.9s

DICPCG:  Solving for w, Initial residual = 0.00112491, Final residual = 1.7808e-06, No Iterations 1
Global Volume-Averaged Solid Fraction (Gs) = 0.0232283
DICPCG:  Solving for T, Initial residual = 0.0120847, Final residual = 1.67017e-05, No Iterations 1
GAMG:  Solving for p_rgh, Initial residual = 0, Final residual = 0, No Iterations 0
time step continuity errors : sum local = 0, global = 0, cumulative = 0
DILUPBiCGStab:  Solving for omega, Initial residual = 1.26115e-05, Final residual = 7.83003e-08, No Iterations 1
DILUPBiCGStab:  Solving for k, Initial residual = 0.00939165, Final residual = 7.7571e-06, No Iterations 1
ExecutionTime = 5.71366 s  ClockTime = 6 s

Courant Number mean: 0 max: 0
Time = 8s

DICPCG:  Solving for w, Initial residual = 0.00105866, Final residual = 1.66658e-06, No Iterations 1
Global Volume-Averaged Solid Fraction (Gs) = 0.0232283
DICPCG:  Solving for T, Initial residual = 0.0120342, Final residual = 1.66504e-05, No Iterations 1
GAMG:  Solving for p_rgh, Initial residual = 0, Final residual = 0, No Iterations 0
time step continuity errors : sum local = 0, global = 0, cumulative = 0
DILUPBiCGStab:  Solving for omega, Initial residual = 1.1796e-05, Final residual = 7.74858e-08, No Iterations 1
DILUPBiCGStab:  Solving for k, Initial residual = 0.00945767, Final residual = 7.73414e-06, No Iterations 1
ExecutionTime = 5.8664 s  ClockTime = 6 s

Courant Number mean: 0 max: 0
Time = 8.1s

DICPCG:  Solving for w, Initial residual = 0.00101696, Final residual = 1.60088e-06, No Iterations 1
Global Volume-Averaged Solid Fraction (Gs) = 0.0232283
DICPCG:  Solving for T, Initial residual = 0.0119833, Final residual = 1.66339e-05, No Iterations 1
GAMG:  Solving for p_rgh, Initial residual = 0, Final residual = 0, No Iterations 0
time step continuity errors : sum local = 0, global = 0, cumulative = 0
DILUPBiCGStab:  Solving for omega, Initial residual = 1.1031e-05, Final residual = 7.6467e-08, No Iterations 1
DILUPBiCGStab:  Solving for k, Initial residual = 0.00952151, Final residual = 7.71203e-06, No Iterations 1
ExecutionTime = 5.92438 s  ClockTime = 6 s

Courant Number mean: 0 max: 0
Time = 8.2s

DICPCG:  Solving for w, Initial residual = 0.00101449, Final residual = 1.59159e-06, No Iterations 1
Global Volume-Averaged Solid Fraction (Gs) = 0.0232283
DICPCG:  Solving for T, Initial residual = 0.0118428, Final residual = 1.63945e-05, No Iterations 1
GAMG:  Solving for p_rgh, Initial residual = 0, Final residual = 0, No Iterations 0
time step continuity errors : sum local = 0, global = 0, cumulative = 0
DILUPBiCGStab:  Solving for omega, Initial residual = 1.02975e-05, Final residual = 7.52183e-08, No Iterations 1
DILUPBiCGStab:  Solving for k, Initial residual = 0.00958316, Final residual = 7.69104e-06, No Iterations 1
ExecutionTime = 5.98233 s  ClockTime = 6 s

Courant Number mean: 0 max: 0
Time = 8.3s

DICPCG:  Solving for w, Initial residual = 0.00102027, Final residual = 1.60727e-06, No Iterations 1
Global Volume-Averaged Solid Fraction (Gs) = 0.0232283
DICPCG:  Solving for T, Initial residual = 0.011826, Final residual = 1.63632e-05, No Iterations 1
GAMG:  Solving for p_rgh, Initial residual = 0, Final residual = 0, No Iterations 0
time step continuity errors : sum local = 0, global = 0, cumulative = 0
DILUPBiCGStab:  Solving for omega, Initial residual = 9.5934e-06, Final residual = 7.36971e-08, No Iterations 1
DILUPBiCGStab:  Solving for k, Initial residual = 0.00964259, Final residual = 7.67119e-06, No Iterations 1
ExecutionTime = 6.04092 s  ClockTime = 6 s

Courant Number mean: 0 max: 0
Time = 8.4s

DICPCG:  Solving for w, Initial residual = 0.000964586, Final residual = 1.49435e-06, No Iterations 1
Global Volume-Averaged Solid Fraction (Gs) = 0.0232283
DICPCG:  Solving for T, Initial residual = 0.0117073, Final residual = 1.61326e-05, No Iterations 1
GAMG:  Solving for p_rgh, Initial residual = 0, Final residual = 0, No Iterations 0
time step continuity errors : sum local = 0, global = 0, cumulative = 0
DILUPBiCGStab:  Solving for omega, Initial residual = 8.92106e-06, Final residual = 7.18618e-08, No Iterations 1
DILUPBiCGStab:  Solving for k, Initial residual = 0.0096998, Final residual = 7.65297e-06, No Iterations 1
ExecutionTime = 6.09921 s  ClockTime = 6 s

Courant Number mean: 0 max: 0
Time = 8.5s

DICPCG:  Solving for w, Initial residual = 0.000924512, Final residual = 1.44178e-06, No Iterations 1
Global Volume-Averaged Solid Fraction (Gs) = 0.0232283
DICPCG:  Solving for T, Initial residual = 0.0116069, Final residual = 1.59982e-05, No Iterations 1
GAMG:  Solving for p_rgh, Initial residual = 0, Final residual = 0, No Iterations 0
time step continuity errors : sum local = 0, global = 0, cumulative = 0
DILUPBiCGStab:  Solving for omega, Initial residual = 8.30595e-06, Final residual = 6.97003e-08, No Iterations 1
DILUPBiCGStab:  Solving for k, Initial residual = 0.00975472, Final residual = 7.63597e-06, No Iterations 1
ExecutionTime = 6.1578 s  ClockTime = 6 s

Courant Number mean: 0 max: 0
Time = 8.6s

DICPCG:  Solving for w, Initial residual = 0.00092562, Final residual = 1.43544e-06, No Iterations 1
Global Volume-Averaged Solid Fraction (Gs) = 0.0232283
DICPCG:  Solving for T, Initial residual = 0.0116432, Final residual = 1.60538e-05, No Iterations 1
GAMG:  Solving for p_rgh, Initial residual = 0, Final residual = 0, No Iterations 0
time step continuity errors : sum local = 0, global = 0, cumulative = 0
DILUPBiCGStab:  Solving for omega, Initial residual = 7.71983e-06, Final residual = 6.71406e-08, No Iterations 1
DILUPBiCGStab:  Solving for k, Initial residual = 0.00980745, Final residual = 7.62022e-06, No Iterations 1
ExecutionTime = 6.21667 s  ClockTime = 6 s

Courant Number mean: 0 max: 0
Time = 8.7s

DICPCG:  Solving for w, Initial residual = 0.000902195, Final residual = 1.4114e-06, No Iterations 1
Global Volume-Averaged Solid Fraction (Gs) = 0.0232283
DICPCG:  Solving for T, Initial residual = 0.0114593, Final residual = 1.57597e-05, No Iterations 1
GAMG:  Solving for p_rgh, Initial residual = 0, Final residual = 0, No Iterations 0
time step continuity errors : sum local = 0, global = 0, cumulative = 0
DILUPBiCGStab:  Solving for omega, Initial residual = 7.16661e-06, Final residual = 6.41974e-08, No Iterations 1
DILUPBiCGStab:  Solving for k, Initial residual = 0.00985797, Final residual = 7.60577e-06, No Iterations 1
ExecutionTime = 6.27527 s  ClockTime = 6 s

Courant Number mean: 0 max: 0
Time = 8.8s

DICPCG:  Solving for w, Initial residual = 0.0009716, Final residual = 1.51872e-06, No Iterations 1
Global Volume-Averaged Solid Fraction (Gs) = 0.0232283
DICPCG:  Solving for T, Initial residual = 0.0115025, Final residual = 1.58887e-05, No Iterations 1
GAMG:  Solving for p_rgh, Initial residual = 0, Final residual = 0, No Iterations 0
time step continuity errors : sum local = 0, global = 0, cumulative = 0
DILUPBiCGStab:  Solving for omega, Initial residual = 6.64168e-06, Final residual = 6.09422e-08, No Iterations 1
DILUPBiCGStab:  Solving for k, Initial residual = 0.00990631, Final residual = 7.59266e-06, No Iterations 1
ExecutionTime = 6.33326 s  ClockTime = 6 s

Courant Number mean: 0 max: 0
Time = 8.9s

DICPCG:  Solving for w, Initial residual = 0.000906054, Final residual = 1.41748e-06, No Iterations 1
Global Volume-Averaged Solid Fraction (Gs) = 0.0232283
DICPCG:  Solving for T, Initial residual = 0.0114453, Final residual = 1.57723e-05, No Iterations 1
GAMG:  Solving for p_rgh, Initial residual = 0, Final residual = 0, No Iterations 0
time step continuity errors : sum local = 0, global = 0, cumulative = 0
DILUPBiCGStab:  Solving for omega, Initial residual = 6.17497e-06, Final residual = 5.73724e-08, No Iterations 1
DILUPBiCGStab:  Solving for k, Initial residual = 0.0099525, Final residual = 7.58127e-06, No Iterations 1
ExecutionTime = 6.39107 s  ClockTime = 6 s

Courant Number mean: 0 max: 0
Time = 9s

DICPCG:  Solving for w, Initial residual = 0.000897382, Final residual = 1.39626e-06, No Iterations 1
Global Volume-Averaged Solid Fraction (Gs) = 0.0232283
DICPCG:  Solving for T, Initial residual = 0.0114139, Final residual = 1.57771e-05, No Iterations 1
GAMG:  Solving for p_rgh, Initial residual = 0, Final residual = 0, No Iterations 0
time step continuity errors : sum local = 0, global = 0, cumulative = 0
DILUPBiCGStab:  Solving for omega, Initial residual = 5.74326e-06, Final residual = 5.35038e-08, No Iterations 1
DILUPBiCGStab:  Solving for k, Initial residual = 0.00999653, Final residual = 7.5715e-06, No Iterations 1
ExecutionTime = 6.54549 s  ClockTime = 6 s

Courant Number mean: 0 max: 0
Time = 9.1s

DICPCG:  Solving for w, Initial residual = 0.00085509, Final residual = 1.33153e-06, No Iterations 1
Global Volume-Averaged Solid Fraction (Gs) = 0.0232283
DICPCG:  Solving for T, Initial residual = 0.0114204, Final residual = 1.57504e-05, No Iterations 1
GAMG:  Solving for p_rgh, Initial residual = 0, Final residual = 0, No Iterations 0
time step continuity errors : sum local = 0, global = 0, cumulative = 0
DILUPBiCGStab:  Solving for omega, Initial residual = 5.33574e-06, Final residual = 4.93432e-08, No Iterations 1
DILUPBiCGStab:  Solving for k, Initial residual = 0.0100384, Final residual = 7.5631e-06, No Iterations 1
ExecutionTime = 6.60429 s  ClockTime = 6 s

Courant Number mean: 0 max: 0
Time = 9.2s

DICPCG:  Solving for w, Initial residual = 0.000843351, Final residual = 1.31137e-06, No Iterations 1
Global Volume-Averaged Solid Fraction (Gs) = 0.0232283
DICPCG:  Solving for T, Initial residual = 0.0113819, Final residual = 1.57092e-05, No Iterations 1
GAMG:  Solving for p_rgh, Initial residual = 0, Final residual = 0, No Iterations 0
time step continuity errors : sum local = 0, global = 0, cumulative = 0
DILUPBiCGStab:  Solving for omega, Initial residual = 4.98283e-06, Final residual = 4.521e-08, No Iterations 1
DILUPBiCGStab:  Solving for k, Initial residual = 0.0100783, Final residual = 7.55605e-06, No Iterations 1
ExecutionTime = 6.66423 s  ClockTime = 7 s

Courant Number mean: 0 max: 0
Time = 9.3s

DICPCG:  Solving for w, Initial residual = 0.00085009, Final residual = 1.33165e-06, No Iterations 1
Global Volume-Averaged Solid Fraction (Gs) = 0.0232283
DICPCG:  Solving for T, Initial residual = 0.0113343, Final residual = 1.56216e-05, No Iterations 1
GAMG:  Solving for p_rgh, Initial residual = 0, Final residual = 0, No Iterations 0
time step continuity errors : sum local = 0, global = 0, cumulative = 0
DILUPBiCGStab:  Solving for omega, Initial residual = 4.68455e-06, Final residual = 4.16545e-08, No Iterations 1
DILUPBiCGStab:  Solving for k, Initial residual = 0.010116, Final residual = 7.55044e-06, No Iterations 1
ExecutionTime = 6.72182 s  ClockTime = 7 s

Courant Number mean: 0 max: 0
Time = 9.4s

DICPCG:  Solving for w, Initial residual = 0.000858451, Final residual = 1.3417e-06, No Iterations 1
Global Volume-Averaged Solid Fraction (Gs) = 0.0232283
DICPCG:  Solving for T, Initial residual = 0.0113112, Final residual = 1.56515e-05, No Iterations 1
GAMG:  Solving for p_rgh, Initial residual = 0, Final residual = 0, No Iterations 0
time step continuity errors : sum local = 0, global = 0, cumulative = 0
DILUPBiCGStab:  Solving for omega, Initial residual = 4.40318e-06, Final residual = 3.86347e-08, No Iterations 1
DILUPBiCGStab:  Solving for k, Initial residual = 0.0101516, Final residual = 7.54621e-06, No Iterations 1
ExecutionTime = 6.77967 s  ClockTime = 7 s

Courant Number mean: 0 max: 0
Time = 9.5s

DICPCG:  Solving for w, Initial residual = 0.000809901, Final residual = 1.28477e-06, No Iterations 1
Global Volume-Averaged Solid Fraction (Gs) = 0.0232283
DICPCG:  Solving for T, Initial residual = 0.0113746, Final residual = 1.57443e-05, No Iterations 1
GAMG:  Solving for p_rgh, Initial residual = 0, Final residual = 0, No Iterations 0
time step continuity errors : sum local = 0, global = 0, cumulative = 0
DILUPBiCGStab:  Solving for omega, Initial residual = 4.17417e-06, Final residual = 3.58056e-08, No Iterations 1
DILUPBiCGStab:  Solving for k, Initial residual = 0.0101853, Final residual = 7.54354e-06, No Iterations 1
ExecutionTime = 6.83866 s  ClockTime = 7 s

Courant Number mean: 0 max: 0
Time = 9.6s

DICPCG:  Solving for w, Initial residual = 0.000811268, Final residual = 1.27597e-06, No Iterations 1
Global Volume-Averaged Solid Fraction (Gs) = 0.0232283
DICPCG:  Solving for T, Initial residual = 0.0113079, Final residual = 1.56239e-05, No Iterations 1
GAMG:  Solving for p_rgh, Initial residual = 0, Final residual = 0, No Iterations 0
time step continuity errors : sum local = 0, global = 0, cumulative = 0
DILUPBiCGStab:  Solving for omega, Initial residual = 3.96964e-06, Final residual = 3.34315e-08, No Iterations 1
DILUPBiCGStab:  Solving for k, Initial residual = 0.0102169, Final residual = 7.54344e-06, No Iterations 1
ExecutionTime = 6.89655 s  ClockTime = 7 s

Courant Number mean: 0 max: 0
Time = 9.7s

DICPCG:  Solving for w, Initial residual = 0.000811042, Final residual = 1.27815e-06, No Iterations 1
Global Volume-Averaged Solid Fraction (Gs) = 0.0232283
DICPCG:  Solving for T, Initial residual = 0.0111942, Final residual = 1.54451e-05, No Iterations 1
GAMG:  Solving for p_rgh, Initial residual = 0, Final residual = 0, No Iterations 0
time step continuity errors : sum local = 0, global = 0, cumulative = 0
DILUPBiCGStab:  Solving for omega, Initial residual = 3.79486e-06, Final residual = 3.12578e-08, No Iterations 1
DILUPBiCGStab:  Solving for k, Initial residual = 0.0102466, Final residual = 7.54498e-06, No Iterations 1
ExecutionTime = 6.95376 s  ClockTime = 7 s

Courant Number mean: 0 max: 0
Time = 9.8s

DICPCG:  Solving for w, Initial residual = 0.000804334, Final residual = 1.25959e-06, No Iterations 1
Global Volume-Averaged Solid Fraction (Gs) = 0.0232283
DICPCG:  Solving for T, Initial residual = 0.0111785, Final residual = 1.55065e-05, No Iterations 1
GAMG:  Solving for p_rgh, Initial residual = 0, Final residual = 0, No Iterations 0
time step continuity errors : sum local = 0, global = 0, cumulative = 0
DILUPBiCGStab:  Solving for omega, Initial residual = 3.66784e-06, Final residual = 2.97692e-08, No Iterations 1
DILUPBiCGStab:  Solving for k, Initial residual = 0.0102744, Final residual = 7.54814e-06, No Iterations 1
ExecutionTime = 7.01075 s  ClockTime = 7 s

Courant Number mean: 0 max: 0
Time = 9.9s

DICPCG:  Solving for w, Initial residual = 0.000793889, Final residual = 1.2482e-06, No Iterations 1
Global Volume-Averaged Solid Fraction (Gs) = 0.0232283
DICPCG:  Solving for T, Initial residual = 0.011105, Final residual = 1.53058e-05, No Iterations 1
GAMG:  Solving for p_rgh, Initial residual = 0, Final residual = 0, No Iterations 0
time step continuity errors : sum local = 0, global = 0, cumulative = 0
DILUPBiCGStab:  Solving for omega, Initial residual = 3.56741e-06, Final residual = 2.88685e-08, No Iterations 1
DILUPBiCGStab:  Solving for k, Initial residual = 0.0103002, Final residual = 7.55275e-06, No Iterations 1
ExecutionTime = 7.07008 s  ClockTime = 7 s

Courant Number mean: 0 max: 0
Time = 10s

DICPCG:  Solving for w, Initial residual = 0.000805023, Final residual = 1.25704e-06, No Iterations 1
Global Volume-Averaged Solid Fraction (Gs) = 0.0232283
DICPCG:  Solving for T, Initial residual = 0.0110729, Final residual = 1.52757e-05, No Iterations 1
GAMG:  Solving for p_rgh, Initial residual = 0, Final residual = 0, No Iterations 0
time step continuity errors : sum local = 0, global = 0, cumulative = 0
DILUPBiCGStab:  Solving for omega, Initial residual = 3.52469e-06, Final residual = 2.88464e-08, No Iterations 1
DILUPBiCGStab:  Solving for k, Initial residual = 0.0103242, Final residual = 7.55848e-06, No Iterations 1
ExecutionTime = 7.22501 s  ClockTime = 7 s

Courant Number mean: 0 max: 0
Time = 10.1s

DICPCG:  Solving for w, Initial residual = 0.000768728, Final residual = 1.20846e-06, No Iterations 1
Global Volume-Averaged Solid Fraction (Gs) = 0.0232283
DICPCG:  Solving for T, Initial residual = 0.0110862, Final residual = 1.53406e-05, No Iterations 1
GAMG:  Solving for p_rgh, Initial residual = 0, Final residual = 0, No Iterations 0
time step continuity errors : sum local = 0, global = 0, cumulative = 0
DILUPBiCGStab:  Solving for omega, Initial residual = 3.53788e-06, Final residual = 2.9635e-08, No Iterations 1
DILUPBiCGStab:  Solving for k, Initial residual = 0.0103463, Final residual = 7.56539e-06, No Iterations 1
ExecutionTime = 7.28376 s  ClockTime = 7 s

Courant Number mean: 0 max: 0
Time = 10.2s

DICPCG:  Solving for w, Initial residual = 0.000755122, Final residual = 1.17298e-06, No Iterations 1
Global Volume-Averaged Solid Fraction (Gs) = 0.0232283
DICPCG:  Solving for T, Initial residual = 0.011028, Final residual = 1.52801e-05, No Iterations 1
GAMG:  Solving for p_rgh, Initial residual = 0, Final residual = 0, No Iterations 0
time step continuity errors : sum local = 0, global = 0, cumulative = 0
DILUPBiCGStab:  Solving for omega, Initial residual = 3.59713e-06, Final residual = 3.12664e-08, No Iterations 1
DILUPBiCGStab:  Solving for k, Initial residual = 0.0103666, Final residual = 7.57328e-06, No Iterations 1
ExecutionTime = 7.34418 s  ClockTime = 7 s

Courant Number mean: 0 max: 0
Time = 10.3s

DICPCG:  Solving for w, Initial residual = 0.000718461, Final residual = 1.12541e-06, No Iterations 1
Global Volume-Averaged Solid Fraction (Gs) = 0.0232283
DICPCG:  Solving for T, Initial residual = 0.0109467, Final residual = 1.51102e-05, No Iterations 1
GAMG:  Solving for p_rgh, Initial residual = 0, Final residual = 0, No Iterations 0
time step continuity errors : sum local = 0, global = 0, cumulative = 0
DILUPBiCGStab:  Solving for omega, Initial residual = 3.7213e-06, Final residual = 3.41335e-08, No Iterations 1
DILUPBiCGStab:  Solving for k, Initial residual = 0.0103852, Final residual = 7.58206e-06, No Iterations 1
ExecutionTime = 7.40868 s  ClockTime = 7 s

Courant Number mean: 0 max: 0
Time = 10.4s

DICPCG:  Solving for w, Initial residual = 0.000713651, Final residual = 1.10864e-06, No Iterations 1
Global Volume-Averaged Solid Fraction (Gs) = 0.0232283
DICPCG:  Solving for T, Initial residual = 0.0109403, Final residual = 1.50732e-05, No Iterations 1
GAMG:  Solving for p_rgh, Initial residual = 0, Final residual = 0, No Iterations 0
time step continuity errors : sum local = 0, global = 0, cumulative = 0
DILUPBiCGStab:  Solving for omega, Initial residual = 3.93053e-06, Final residual = 3.68127e-08, No Iterations 1
DILUPBiCGStab:  Solving for k, Initial residual = 0.0104019, Final residual = 7.59174e-06, No Iterations 1
ExecutionTime = 7.47657 s  ClockTime = 7 s

Courant Number mean: 0 max: 0
Time = 10.5s

DICPCG:  Solving for w, Initial residual = 0.000677677, Final residual = 1.06547e-06, No Iterations 1
Global Volume-Averaged Solid Fraction (Gs) = 0.0232283
DICPCG:  Solving for T, Initial residual = 0.010833, Final residual = 1.49282e-05, No Iterations 1
GAMG:  Solving for p_rgh, Initial residual = 0, Final residual = 0, No Iterations 0
time step continuity errors : sum local = 0, global = 0, cumulative = 0
DILUPBiCGStab:  Solving for omega, Initial residual = 4.13249e-06, Final residual = 3.88925e-08, No Iterations 1
DILUPBiCGStab:  Solving for k, Initial residual = 0.010417, Final residual = 7.60234e-06, No Iterations 1
ExecutionTime = 7.54591 s  ClockTime = 7 s

Courant Number mean: 0 max: 0
Time = 10.6s

DICPCG:  Solving for w, Initial residual = 0.000688965, Final residual = 1.08194e-06, No Iterations 1
Global Volume-Averaged Solid Fraction (Gs) = 0.0232283
DICPCG:  Solving for T, Initial residual = 0.0107947, Final residual = 1.48837e-05, No Iterations 1
GAMG:  Solving for p_rgh, Initial residual = 0, Final residual = 0, No Iterations 0
time step continuity errors : sum local = 0, global = 0, cumulative = 0
DILUPBiCGStab:  Solving for omega, Initial residual = 4.31254e-06, Final residual = 4.03813e-08, No Iterations 1
DILUPBiCGStab:  Solving for k, Initial residual = 0.0104303, Final residual = 7.61407e-06, No Iterations 1
ExecutionTime = 7.61873 s  ClockTime = 7 s

Courant Number mean: 0 max: 0
Time = 10.7s

DICPCG:  Solving for w, Initial residual = 0.000674041, Final residual = 1.05732e-06, No Iterations 1
Global Volume-Averaged Solid Fraction (Gs) = 0.0232283
DICPCG:  Solving for T, Initial residual = 0.0107812, Final residual = 1.48383e-05, No Iterations 1
GAMG:  Solving for p_rgh, Initial residual = 0, Final residual = 0, No Iterations 0
time step continuity errors : sum local = 0, global = 0, cumulative = 0
DILUPBiCGStab:  Solving for omega, Initial residual = 4.48224e-06, Final residual = 4.14482e-08, No Iterations 1
DILUPBiCGStab:  Solving for k, Initial residual = 0.0104419, Final residual = 7.62678e-06, No Iterations 1
ExecutionTime = 7.68651 s  ClockTime = 8 s

Courant Number mean: 0 max: 0
Time = 10.8s

DICPCG:  Solving for w, Initial residual = 0.00068053, Final residual = 1.0589e-06, No Iterations 1
Global Volume-Averaged Solid Fraction (Gs) = 0.0232283
DICPCG:  Solving for T, Initial residual = 0.0108144, Final residual = 1.48298e-05, No Iterations 1
GAMG:  Solving for p_rgh, Initial residual = 0, Final residual = 0, No Iterations 0
time step continuity errors : sum local = 0, global = 0, cumulative = 0
DILUPBiCGStab:  Solving for omega, Initial residual = 4.63799e-06, Final residual = 4.213e-08, No Iterations 1
DILUPBiCGStab:  Solving for k, Initial residual = 0.0104519, Final residual = 7.64052e-06, No Iterations 1
ExecutionTime = 7.74814 s  ClockTime = 8 s

Courant Number mean: 0 max: 0
Time = 10.9s

DICPCG:  Solving for w, Initial residual = 0.000680041, Final residual = 1.07191e-06, No Iterations 1
Global Volume-Averaged Solid Fraction (Gs) = 0.0232283
DICPCG:  Solving for T, Initial residual = 0.0107558, Final residual = 1.4779e-05, No Iterations 1
GAMG:  Solving for p_rgh, Initial residual = 0, Final residual = 0, No Iterations 0
time step continuity errors : sum local = 0, global = 0, cumulative = 0
DILUPBiCGStab:  Solving for omega, Initial residual = 4.77875e-06, Final residual = 4.24587e-08, No Iterations 1
[...]
DILUPBiCGStab:  Solving for omega, Initial residual = 9.43616e-09, Final residual = 9.43616e-09, No Iterations 0
DILUPBiCGStab:  Solving for k, Initial residual = 0.999884, Final residual = 0.0010923, No Iterations 1
bounding k, min: 6.86903e-17 max: 2.13778e-16 average: 1.76263e-16
ExecutionTime = 70.0273 s  ClockTime = 70 s

Courant Number mean: 0 max: 0
Time = 97.6s

DICPCG:  Solving for w, Initial residual = 0.000301833, Final residual = 4.04888e-07, No Iterations 1
Global Volume-Averaged Solid Fraction (Gs) = 0.0232283
DICPCG:  Solving for T, Initial residual = 0.0094938, Final residual = 1.29616e-05, No Iterations 1
GAMG:  Solving for p_rgh, Initial residual = 0, Final residual = 0, No Iterations 0
time step continuity errors : sum local = 0, global = 0, cumulative = 0
DILUPBiCGStab:  Solving for omega, Initial residual = 9.43616e-09, Final residual = 9.43616e-09, No Iterations 0
DILUPBiCGStab:  Solving for k, Initial residual = 0.999884, Final residual = 0.0010923, No Iterations 1
bounding k, min: 6.86903e-17 max: 2.13778e-16 average: 1.76263e-16
ExecutionTime = 70.0891 s  ClockTime = 70 s

Courant Number mean: 0 max: 0
Time = 97.7s

DICPCG:  Solving for w, Initial residual = 0.000297176, Final residual = 4.08657e-07, No Iterations 1
Global Volume-Averaged Solid Fraction (Gs) = 0.0232283
DICPCG:  Solving for T, Initial residual = 0.00949694, Final residual = 1.29917e-05, No Iterations 1
GAMG:  Solving for p_rgh, Initial residual = 0, Final residual = 0, No Iterations 0
time step continuity errors : sum local = 0, global = 0, cumulative = 0
DILUPBiCGStab:  Solving for omega, Initial residual = 9.43616e-09, Final residual = 9.43616e-09, No Iterations 0
DILUPBiCGStab:  Solving for k, Initial residual = 0.999884, Final residual = 0.0010923, No Iterations 1
bounding k, min: 6.86903e-17 max: 2.13778e-16 average: 1.76263e-16
ExecutionTime = 70.1482 s  ClockTime = 70 s

Courant Number mean: 0 max: 0
Time = 97.8s

DICPCG:  Solving for w, Initial residual = 0.000303904, Final residual = 4.07424e-07, No Iterations 1
Global Volume-Averaged Solid Fraction (Gs) = 0.0232283
DICPCG:  Solving for T, Initial residual = 0.0095005, Final residual = 1.29717e-05, No Iterations 1
GAMG:  Solving for p_rgh, Initial residual = 0, Final residual = 0, No Iterations 0
time step continuity errors : sum local = 0, global = 0, cumulative = 0
DILUPBiCGStab:  Solving for omega, Initial residual = 9.43616e-09, Final residual = 9.43616e-09, No Iterations 0
DILUPBiCGStab:  Solving for k, Initial residual = 0.999884, Final residual = 0.0010923, No Iterations 1
bounding k, min: 6.86903e-17 max: 2.13778e-16 average: 1.76263e-16
ExecutionTime = 70.2084 s  ClockTime = 70 s

Courant Number mean: 0 max: 0
Time = 97.9s

DICPCG:  Solving for w, Initial residual = 0.000298213, Final residual = 4.09535e-07, No Iterations 1
Global Volume-Averaged Solid Fraction (Gs) = 0.0232283
DICPCG:  Solving for T, Initial residual = 0.00948581, Final residual = 1.29408e-05, No Iterations 1
GAMG:  Solving for p_rgh, Initial residual = 0, Final residual = 0, No Iterations 0
time step continuity errors : sum local = 0, global = 0, cumulative = 0
DILUPBiCGStab:  Solving for omega, Initial residual = 9.43616e-09, Final residual = 9.43616e-09, No Iterations 0
DILUPBiCGStab:  Solving for k, Initial residual = 0.999884, Final residual = 0.0010923, No Iterations 1
bounding k, min: 6.86903e-17 max: 2.13778e-16 average: 1.76263e-16
ExecutionTime = 70.2684 s  ClockTime = 70 s

Courant Number mean: 0 max: 0
Time = 98s

DICPCG:  Solving for w, Initial residual = 0.000300799, Final residual = 4.04025e-07, No Iterations 1
Global Volume-Averaged Solid Fraction (Gs) = 0.0232283
DICPCG:  Solving for T, Initial residual = 0.00951925, Final residual = 1.29849e-05, No Iterations 1
GAMG:  Solving for p_rgh, Initial residual = 0, Final residual = 0, No Iterations 0
time step continuity errors : sum local = 0, global = 0, cumulative = 0
DILUPBiCGStab:  Solving for omega, Initial residual = 9.43616e-09, Final residual = 9.43616e-09, No Iterations 0
DILUPBiCGStab:  Solving for k, Initial residual = 0.999884, Final residual = 0.0010923, No Iterations 1
bounding k, min: 6.86903e-17 max: 2.13778e-16 average: 1.76263e-16
ExecutionTime = 70.4111 s  ClockTime = 71 s

Courant Number mean: 0 max: 0
Time = 98.1s

DICPCG:  Solving for w, Initial residual = 0.000300284, Final residual = 4.12049e-07, No Iterations 1
Global Volume-Averaged Solid Fraction (Gs) = 0.0232283
DICPCG:  Solving for T, Initial residual = 0.00948677, Final residual = 1.2941e-05, No Iterations 1
GAMG:  Solving for p_rgh, Initial residual = 0, Final residual = 0, No Iterations 0
time step continuity errors : sum local = 0, global = 0, cumulative = 0
DILUPBiCGStab:  Solving for omega, Initial residual = 9.43616e-09, Final residual = 9.43616e-09, No Iterations 0
DILUPBiCGStab:  Solving for k, Initial residual = 0.999884, Final residual = 0.0010923, No Iterations 1
bounding k, min: 6.86903e-17 max: 2.13778e-16 average: 1.76263e-16
ExecutionTime = 70.4869 s  ClockTime = 71 s

Courant Number mean: 0 max: 0
Time = 98.2s

DICPCG:  Solving for w, Initial residual = 0.000301831, Final residual = 4.04884e-07, No Iterations 1
Global Volume-Averaged Solid Fraction (Gs) = 0.0232283
DICPCG:  Solving for T, Initial residual = 0.00948684, Final residual = 1.29709e-05, No Iterations 1
GAMG:  Solving for p_rgh, Initial residual = 0, Final residual = 0, No Iterations 0
time step continuity errors : sum local = 0, global = 0, cumulative = 0
DILUPBiCGStab:  Solving for omega, Initial residual = 9.43616e-09, Final residual = 9.43616e-09, No Iterations 0
DILUPBiCGStab:  Solving for k, Initial residual = 0.999884, Final residual = 0.0010923, No Iterations 1
bounding k, min: 6.86903e-17 max: 2.13778e-16 average: 1.76263e-16
ExecutionTime = 70.5521 s  ClockTime = 71 s

Courant Number mean: 0 max: 0
Time = 98.3s

DICPCG:  Solving for w, Initial residual = 0.000297179, Final residual = 4.08661e-07, No Iterations 1
Global Volume-Averaged Solid Fraction (Gs) = 0.0232283
DICPCG:  Solving for T, Initial residual = 0.00950694, Final residual = 1.30079e-05, No Iterations 1
GAMG:  Solving for p_rgh, Initial residual = 0, Final residual = 0, No Iterations 0
time step continuity errors : sum local = 0, global = 0, cumulative = 0
DILUPBiCGStab:  Solving for omega, Initial residual = 9.43616e-09, Final residual = 9.43616e-09, No Iterations 0
DILUPBiCGStab:  Solving for k, Initial residual = 0.999884, Final residual = 0.0010923, No Iterations 1
bounding k, min: 6.86903e-17 max: 2.13778e-16 average: 1.76263e-16
ExecutionTime = 70.6152 s  ClockTime = 71 s

Courant Number mean: 0 max: 0
Time = 98.4s

DICPCG:  Solving for w, Initial residual = 0.000303907, Final residual = 4.07428e-07, No Iterations 1
Global Volume-Averaged Solid Fraction (Gs) = 0.0232283
DICPCG:  Solving for T, Initial residual = 0.0095022, Final residual = 1.29543e-05, No Iterations 1
GAMG:  Solving for p_rgh, Initial residual = 0, Final residual = 0, No Iterations 0
time step continuity errors : sum local = 0, global = 0, cumulative = 0
DILUPBiCGStab:  Solving for omega, Initial residual = 9.43616e-09, Final residual = 9.43616e-09, No Iterations 0
DILUPBiCGStab:  Solving for k, Initial residual = 0.999884, Final residual = 0.0010923, No Iterations 1
bounding k, min: 6.86903e-17 max: 2.13778e-16 average: 1.76263e-16
ExecutionTime = 70.6757 s  ClockTime = 71 s

Courant Number mean: 0 max: 0
Time = 98.5s

DICPCG:  Solving for w, Initial residual = 0.00029821, Final residual = 4.09531e-07, No Iterations 1
Global Volume-Averaged Solid Fraction (Gs) = 0.0232283
DICPCG:  Solving for T, Initial residual = 0.00947846, Final residual = 1.29392e-05, No Iterations 1
GAMG:  Solving for p_rgh, Initial residual = 0, Final residual = 0, No Iterations 0
time step continuity errors : sum local = 0, global = 0, cumulative = 0
DILUPBiCGStab:  Solving for omega, Initial residual = 9.43616e-09, Final residual = 9.43616e-09, No Iterations 0
DILUPBiCGStab:  Solving for k, Initial residual = 0.999884, Final residual = 0.0010923, No Iterations 1
bounding k, min: 6.86903e-17 max: 2.13778e-16 average: 1.76263e-16
ExecutionTime = 70.7344 s  ClockTime = 71 s

Courant Number mean: 0 max: 0
Time = 98.6s

DICPCG:  Solving for w, Initial residual = 0.000300796, Final residual = 4.04022e-07, No Iterations 1
Global Volume-Averaged Solid Fraction (Gs) = 0.0232283
DICPCG:  Solving for T, Initial residual = 0.00952179, Final residual = 1.30119e-05, No Iterations 1
GAMG:  Solving for p_rgh, Initial residual = 0, Final residual = 0, No Iterations 0
time step continuity errors : sum local = 0, global = 0, cumulative = 0
DILUPBiCGStab:  Solving for omega, Initial residual = 9.43616e-09, Final residual = 9.43616e-09, No Iterations 0
DILUPBiCGStab:  Solving for k, Initial residual = 0.999884, Final residual = 0.0010923, No Iterations 1
bounding k, min: 6.86903e-17 max: 2.13778e-16 average: 1.76263e-16
ExecutionTime = 70.7949 s  ClockTime = 71 s

Courant Number mean: 0 max: 0
Time = 98.7s

DICPCG:  Solving for w, Initial residual = 0.000300287, Final residual = 4.12053e-07, No Iterations 1
Global Volume-Averaged Solid Fraction (Gs) = 0.0232283
DICPCG:  Solving for T, Initial residual = 0.00947846, Final residual = 1.29352e-05, No Iterations 1
GAMG:  Solving for p_rgh, Initial residual = 0, Final residual = 0, No Iterations 0
time step continuity errors : sum local = 0, global = 0, cumulative = 0
DILUPBiCGStab:  Solving for omega, Initial residual = 9.43616e-09, Final residual = 9.43616e-09, No Iterations 0
DILUPBiCGStab:  Solving for k, Initial residual = 0.999884, Final residual = 0.0010923, No Iterations 1
bounding k, min: 6.86903e-17 max: 2.13778e-16 average: 1.76263e-16
ExecutionTime = 70.8575 s  ClockTime = 71 s

Courant Number mean: 0 max: 0
Time = 98.8s

DICPCG:  Solving for w, Initial residual = 0.000301833, Final residual = 4.04888e-07, No Iterations 1
Global Volume-Averaged Solid Fraction (Gs) = 0.0232283
DICPCG:  Solving for T, Initial residual = 0.00949833, Final residual = 1.2958e-05, No Iterations 1
GAMG:  Solving for p_rgh, Initial residual = 0, Final residual = 0, No Iterations 0
time step continuity errors : sum local = 0, global = 0, cumulative = 0
DILUPBiCGStab:  Solving for omega, Initial residual = 9.43616e-09, Final residual = 9.43616e-09, No Iterations 0
DILUPBiCGStab:  Solving for k, Initial residual = 0.999884, Final residual = 0.0010923, No Iterations 1
bounding k, min: 6.86903e-17 max: 2.13778e-16 average: 1.76263e-16
ExecutionTime = 70.9243 s  ClockTime = 71 s

Courant Number mean: 0 max: 0
Time = 98.9s

DICPCG:  Solving for w, Initial residual = 0.000297176, Final residual = 4.08657e-07, No Iterations 1
Global Volume-Averaged Solid Fraction (Gs) = 0.0232283
DICPCG:  Solving for T, Initial residual = 0.00950999, Final residual = 1.30013e-05, No Iterations 1
GAMG:  Solving for p_rgh, Initial residual = 0, Final residual = 0, No Iterations 0
time step continuity errors : sum local = 0, global = 0, cumulative = 0
DILUPBiCGStab:  Solving for omega, Initial residual = 9.43616e-09, Final residual = 9.43616e-09, No Iterations 0
DILUPBiCGStab:  Solving for k, Initial residual = 0.999884, Final residual = 0.0010923, No Iterations 1
bounding k, min: 6.86903e-17 max: 2.13778e-16 average: 1.76263e-16
ExecutionTime = 70.9889 s  ClockTime = 71 s

Courant Number mean: 0 max: 0
Time = 99s

DICPCG:  Solving for w, Initial residual = 0.000303904, Final residual = 4.07424e-07, No Iterations 1
Global Volume-Averaged Solid Fraction (Gs) = 0.0232283
DICPCG:  Solving for T, Initial residual = 0.00949337, Final residual = 1.29653e-05, No Iterations 1
GAMG:  Solving for p_rgh, Initial residual = 0, Final residual = 0, No Iterations 0
time step continuity errors : sum local = 0, global = 0, cumulative = 0
DILUPBiCGStab:  Solving for omega, Initial residual = 9.43616e-09, Final residual = 9.43616e-09, No Iterations 0
DILUPBiCGStab:  Solving for k, Initial residual = 0.999884, Final residual = 0.0010923, No Iterations 1
bounding k, min: 6.86903e-17 max: 2.13778e-16 average: 1.76263e-16
ExecutionTime = 71.1379 s  ClockTime = 71 s

Courant Number mean: 0 max: 0
Time = 99.1s

DICPCG:  Solving for w, Initial residual = 0.000298213, Final residual = 4.09535e-07, No Iterations 1
Global Volume-Averaged Solid Fraction (Gs) = 0.0232283
DICPCG:  Solving for T, Initial residual = 0.00947965, Final residual = 1.29411e-05, No Iterations 1
GAMG:  Solving for p_rgh, Initial residual = 0, Final residual = 0, No Iterations 0
time step continuity errors : sum local = 0, global = 0, cumulative = 0
DILUPBiCGStab:  Solving for omega, Initial residual = 9.43616e-09, Final residual = 9.43616e-09, No Iterations 0
DILUPBiCGStab:  Solving for k, Initial residual = 0.999884, Final residual = 0.0010923, No Iterations 1
bounding k, min: 6.86903e-17 max: 2.13778e-16 average: 1.76263e-16
ExecutionTime = 71.2009 s  ClockTime = 71 s

Courant Number mean: 0 max: 0
Time = 99.2s

DICPCG:  Solving for w, Initial residual = 0.000300799, Final residual = 4.04025e-07, No Iterations 1
Global Volume-Averaged Solid Fraction (Gs) = 0.0232283
DICPCG:  Solving for T, Initial residual = 0.00951496, Final residual = 1.29815e-05, No Iterations 1
GAMG:  Solving for p_rgh, Initial residual = 0, Final residual = 0, No Iterations 0
time step continuity errors : sum local = 0, global = 0, cumulative = 0
DILUPBiCGStab:  Solving for omega, Initial residual = 9.43616e-09, Final residual = 9.43616e-09, No Iterations 0
DILUPBiCGStab:  Solving for k, Initial residual = 0.999884, Final residual = 0.0010923, No Iterations 1
bounding k, min: 6.86903e-17 max: 2.13778e-16 average: 1.76263e-16
ExecutionTime = 71.2639 s  ClockTime = 71 s

Courant Number mean: 0 max: 0
Time = 99.3s

DICPCG:  Solving for w, Initial residual = 0.000300284, Final residual = 4.12049e-07, No Iterations 1
Global Volume-Averaged Solid Fraction (Gs) = 0.0232283
DICPCG:  Solving for T, Initial residual = 0.00949129, Final residual = 1.29482e-05, No Iterations 1
GAMG:  Solving for p_rgh, Initial residual = 0, Final residual = 0, No Iterations 0
time step continuity errors : sum local = 0, global = 0, cumulative = 0
DILUPBiCGStab:  Solving for omega, Initial residual = 9.43616e-09, Final residual = 9.43616e-09, No Iterations 0
DILUPBiCGStab:  Solving for k, Initial residual = 0.999884, Final residual = 0.0010923, No Iterations 1
bounding k, min: 6.86903e-17 max: 2.13778e-16 average: 1.76263e-16
ExecutionTime = 71.3269 s  ClockTime = 71 s

Courant Number mean: 0 max: 0
Time = 99.4s

DICPCG:  Solving for w, Initial residual = 0.000301831, Final residual = 4.04884e-07, No Iterations 1
Global Volume-Averaged Solid Fraction (Gs) = 0.0232283
DICPCG:  Solving for T, Initial residual = 0.00949989, Final residual = 1.2984e-05, No Iterations 1
GAMG:  Solving for p_rgh, Initial residual = 0, Final residual = 0, No Iterations 0
time step continuity errors : sum local = 0, global = 0, cumulative = 0
DILUPBiCGStab:  Solving for omega, Initial residual = 9.43616e-09, Final residual = 9.43616e-09, No Iterations 0
DILUPBiCGStab:  Solving for k, Initial residual = 0.999884, Final residual = 0.0010923, No Iterations 1
bounding k, min: 6.86903e-17 max: 2.13778e-16 average: 1.76263e-16
ExecutionTime = 71.3908 s  ClockTime = 72 s

Courant Number mean: 0 max: 0
Time = 99.5s

DICPCG:  Solving for w, Initial residual = 0.000297179, Final residual = 4.08661e-07, No Iterations 1
Global Volume-Averaged Solid Fraction (Gs) = 0.0232283
DICPCG:  Solving for T, Initial residual = 0.00949981, Final residual = 1.29975e-05, No Iterations 1
GAMG:  Solving for p_rgh, Initial residual = 0, Final residual = 0, No Iterations 0
time step continuity errors : sum local = 0, global = 0, cumulative = 0
DILUPBiCGStab:  Solving for omega, Initial residual = 9.43616e-09, Final residual = 9.43616e-09, No Iterations 0
DILUPBiCGStab:  Solving for k, Initial residual = 0.999884, Final residual = 0.0010923, No Iterations 1
bounding k, min: 6.86903e-17 max: 2.13778e-16 average: 1.76263e-16
ExecutionTime = 71.4531 s  ClockTime = 72 s

Courant Number mean: 0 max: 0
Time = 99.6s

DICPCG:  Solving for w, Initial residual = 0.000303907, Final residual = 4.07428e-07, No Iterations 1
Global Volume-Averaged Solid Fraction (Gs) = 0.0232283
DICPCG:  Solving for T, Initial residual = 0.00949604, Final residual = 1.29559e-05, No Iterations 1
GAMG:  Solving for p_rgh, Initial residual = 0, Final residual = 0, No Iterations 0
time step continuity errors : sum local = 0, global = 0, cumulative = 0
DILUPBiCGStab:  Solving for omega, Initial residual = 9.43616e-09, Final residual = 9.43616e-09, No Iterations 0
DILUPBiCGStab:  Solving for k, Initial residual = 0.999884, Final residual = 0.0010923, No Iterations 1
bounding k, min: 6.86903e-17 max: 2.13778e-16 average: 1.76263e-16
ExecutionTime = 71.5167 s  ClockTime = 72 s

Courant Number mean: 0 max: 0
Time = 99.7s

DICPCG:  Solving for w, Initial residual = 0.00029821, Final residual = 4.09531e-07, No Iterations 1
Global Volume-Averaged Solid Fraction (Gs) = 0.0232283
DICPCG:  Solving for T, Initial residual = 0.00947417, Final residual = 1.29373e-05, No Iterations 1
GAMG:  Solving for p_rgh, Initial residual = 0, Final residual = 0, No Iterations 0
time step continuity errors : sum local = 0, global = 0, cumulative = 0
DILUPBiCGStab:  Solving for omega, Initial residual = 9.43616e-09, Final residual = 9.43616e-09, No Iterations 0
DILUPBiCGStab:  Solving for k, Initial residual = 0.999884, Final residual = 0.0010923, No Iterations 1
bounding k, min: 6.86903e-17 max: 2.13778e-16 average: 1.76263e-16
ExecutionTime = 71.5805 s  ClockTime = 72 s

Courant Number mean: 0 max: 0
Time = 99.8s

DICPCG:  Solving for w, Initial residual = 0.000300796, Final residual = 4.04022e-07, No Iterations 1
Global Volume-Averaged Solid Fraction (Gs) = 0.0232283
DICPCG:  Solving for T, Initial residual = 0.00952631, Final residual = 1.30071e-05, No Iterations 1
GAMG:  Solving for p_rgh, Initial residual = 0, Final residual = 0, No Iterations 0
time step continuity errors : sum local = 0, global = 0, cumulative = 0
DILUPBiCGStab:  Solving for omega, Initial residual = 9.43616e-09, Final residual = 9.43616e-09, No Iterations 0
DILUPBiCGStab:  Solving for k, Initial residual = 0.999884, Final residual = 0.0010923, No Iterations 1
bounding k, min: 6.86903e-17 max: 2.13778e-16 average: 1.76263e-16
ExecutionTime = 71.6433 s  ClockTime = 72 s

Courant Number mean: 0 max: 0
Time = 99.9s

DICPCG:  Solving for w, Initial residual = 0.000300287, Final residual = 4.12053e-07, No Iterations 1
Global Volume-Averaged Solid Fraction (Gs) = 0.0232283
DICPCG:  Solving for T, Initial residual = 0.00949151, Final residual = 1.29394e-05, No Iterations 1
GAMG:  Solving for p_rgh, Initial residual = 0, Final residual = 0, No Iterations 0
time step continuity errors : sum local = 0, global = 0, cumulative = 0
DILUPBiCGStab:  Solving for omega, Initial residual = 9.43616e-09, Final residual = 9.43616e-09, No Iterations 0
DILUPBiCGStab:  Solving for k, Initial residual = 0.999884, Final residual = 0.0010923, No Iterations 1
bounding k, min: 6.86903e-17 max: 2.13778e-16 average: 1.76263e-16
ExecutionTime = 71.7058 s  ClockTime = 72 s

Courant Number mean: 0 max: 0
Time = 100s

DICPCG:  Solving for w, Initial residual = 0.000301833, Final residual = 4.04888e-07, No Iterations 1
Global Volume-Averaged Solid Fraction (Gs) = 0.0232283
DICPCG:  Solving for T, Initial residual = 0.0094912, Final residual = 1.29522e-05, No Iterations 1
GAMG:  Solving for p_rgh, Initial residual = 0, Final residual = 0, No Iterations 0
time step continuity errors : sum local = 0, global = 0, cumulative = 0
DILUPBiCGStab:  Solving for omega, Initial residual = 9.43616e-09, Final residual = 9.43616e-09, No Iterations 0
DILUPBiCGStab:  Solving for k, Initial residual = 0.999884, Final residual = 0.0010923, No Iterations 1
bounding k, min: 6.86903e-17 max: 2.13778e-16 average: 1.76263e-16
ExecutionTime = 71.8498 s  ClockTime = 72 s

End

