/*---------------------------------------------------------------------------*\
  =========                 |
  \\      /  F ield         | OpenFOAM: The Open Source CFD Toolbox
   \\    /   O peration     | Website:  https://openfoam.org
    \\  /    A nd           | Version:  13
     \\/     M anipulation  |
\*---------------------------------------------------------------------------*/
Build  : 13-cde978a97c93
Exec   : teseLB_definitive
Date   : Jan 30 2026
Time   : 20:58:42
Host   : "leonardomaximinobernardo"
PID    : 28547
I/O    : uncollated
Case   : /home/leonardomaximinobernardo/My_projects/teseLB_quantico/teseLB/validationCase_definitive
nProcs : 1
sigFpe : Enabling floating point exception trapping (FOAM_SIGFPE).
fileModificationChecking : Monitoring run-time modified files using timeStampMaster (fileModificationSkew 10)
allowSystemOperations : Allowing user-supplied system call operations

// * * * * * * * * * * * * * * * * * * * * * * * * * * * * * * * * * * * * * //
Create time

Create mesh for time = 0


PIMPLE: Convergence criteria found
        p_rgh: tolerance 0.0001
        U: tolerance 0.0001
        h: tolerance 0.0001
        "(k|epsilon|omega)": tolerance 0.001


PIMPLE: Operating solver in transient mode with 1 outer corrector
PIMPLE: Operating solver in PISO mode


Reading thermophysical properties

Reading field p_rgh

Reading field U

Reading/calculating face flux field phi

Reading field T

Reading field w

Creating viscosity model

Creating turbulence model

Selecting turbulence model type RAS
    Selecting RAS turbulence model kOmegaSST
Reading field alphat

Reading field difft


Reading g
No MRF models present

Courant Number mean: 0 max: 0
Selecting patchDistMethod meshWave

 Starting time loop

Courant Number mean: 0 max: 0
Time = 0.25s

DICPCG:  Solving for w, Initial residual = 0.467684, Final residual = 4.64132e-11, No Iterations 1
Global Volume-Averaged Solid Fraction (Gs) = 0
DICPCG:  Solving for T, Initial residual = 1, Final residual = 0.00282685, No Iterations 1
GAMG:  Solving for p_rgh, Initial residual = 0, Final residual = 0, No Iterations 0
time step continuity errors : sum local = 0, global = 0, cumulative = 0
DILUPBiCGStab:  Solving for omega, Initial residual = 0.136714, Final residual = 0.00103227, No Iterations 1
DILUPBiCGStab:  Solving for k, Initial residual = 1, Final residual = 0.0166758, No Iterations 1
ExecutionTime = 0.329668 s  ClockTime = 1 s

Courant Number mean: 0 max: 0
Time = 0.5s

DICPCG:  Solving for w, Initial residual = 0.333365, Final residual = 3.455e-11, No Iterations 1
Global Volume-Averaged Solid Fraction (Gs) = 0
DICPCG:  Solving for T, Initial residual = 0.154354, Final residual = 0.000583655, No Iterations 1
GAMG:  Solving for p_rgh, Initial residual = 0, Final residual = 0, No Iterations 0
time step continuity errors : sum local = 0, global = 0, cumulative = 0
DILUPBiCGStab:  Solving for omega, Initial residual = 0.0136349, Final residual = 5.59187e-06, No Iterations 1
DILUPBiCGStab:  Solving for k, Initial residual = 0.437801, Final residual = 0.000444088, No Iterations 1
ExecutionTime = 0.402659 s  ClockTime = 1 s

Courant Number mean: 0 max: 0
Time = 0.75s

DICPCG:  Solving for w, Initial residual = 0.166478, Final residual = 1.89651e-11, No Iterations 1
Global Volume-Averaged Solid Fraction (Gs) = 0.00363411
DICPCG:  Solving for T, Initial residual = 0.0720202, Final residual = 0.000251245, No Iterations 1
GAMG:  Solving for p_rgh, Initial residual = 0, Final residual = 0, No Iterations 0
time step continuity errors : sum local = 0, global = 0, cumulative = 0
DILUPBiCGStab:  Solving for omega, Initial residual = 0.00292132, Final residual = 4.14525e-06, No Iterations 1
DILUPBiCGStab:  Solving for k, Initial residual = 0.0389576, Final residual = 8.74375e-05, No Iterations 1
ExecutionTime = 0.466915 s  ClockTime = 1 s

Courant Number mean: 0 max: 0
Time = 1s

DICPCG:  Solving for w, Initial residual = 0.121868, Final residual = 1.38649e-11, No Iterations 1
Global Volume-Averaged Solid Fraction (Gs) = 0.00975968
DICPCG:  Solving for T, Initial residual = 0.0392996, Final residual = 0.000174957, No Iterations 1
GAMG:  Solving for p_rgh, Initial residual = 0, Final residual = 0, No Iterations 0
time step continuity errors : sum local = 0, global = 0, cumulative = 0
DILUPBiCGStab:  Solving for omega, Initial residual = 0.00092118, Final residual = 3.04344e-06, No Iterations 1
DILUPBiCGStab:  Solving for k, Initial residual = 0.0145177, Final residual = 6.24849e-05, No Iterations 1
ExecutionTime = 0.531678 s  ClockTime = 1 s

Courant Number mean: 0 max: 0
Time = 1.25s

DICPCG:  Solving for w, Initial residual = 0.0916151, Final residual = 1.07942e-11, No Iterations 1
Global Volume-Averaged Solid Fraction (Gs) = 0.0124109
DICPCG:  Solving for T, Initial residual = 0.0269897, Final residual = 0.000109424, No Iterations 1
GAMG:  Solving for p_rgh, Initial residual = 0, Final residual = 0, No Iterations 0
time step continuity errors : sum local = 0, global = 0, cumulative = 0
DILUPBiCGStab:  Solving for omega, Initial residual = 0.000482792, Final residual = 2.54709e-06, No Iterations 1
DILUPBiCGStab:  Solving for k, Initial residual = 0.0077939, Final residual = 5.26537e-05, No Iterations 1
ExecutionTime = 0.598438 s  ClockTime = 1 s

Courant Number mean: 0 max: 0
Time = 1.5s

DICPCG:  Solving for w, Initial residual = 0.0778645, Final residual = 9.23042e-12, No Iterations 1
Global Volume-Averaged Solid Fraction (Gs) = 0.0136856
DICPCG:  Solving for T, Initial residual = 0.0212808, Final residual = 7.29466e-05, No Iterations 1
GAMG:  Solving for p_rgh, Initial residual = 0, Final residual = 0, No Iterations 0
time step continuity errors : sum local = 0, global = 0, cumulative = 0
DILUPBiCGStab:  Solving for omega, Initial residual = 0.000325098, Final residual = 2.23423e-06, No Iterations 1
DILUPBiCGStab:  Solving for k, Initial residual = 0.00530485, Final residual = 4.38176e-05, No Iterations 1
ExecutionTime = 0.664157 s  ClockTime = 1 s

Courant Number mean: 0 max: 0
Time = 1.75s

DICPCG:  Solving for w, Initial residual = 0.0640266, Final residual = 7.65716e-12, No Iterations 1
Global Volume-Averaged Solid Fraction (Gs) = 0.0143907
DICPCG:  Solving for T, Initial residual = 0.0180943, Final residual = 5.11796e-05, No Iterations 1
GAMG:  Solving for p_rgh, Initial residual = 0, Final residual = 0, No Iterations 0
time step continuity errors : sum local = 0, global = 0, cumulative = 0
DILUPBiCGStab:  Solving for omega, Initial residual = 0.000243854, Final residual = 1.974e-06, No Iterations 1
DILUPBiCGStab:  Solving for k, Initial residual = 0.00423477, Final residual = 3.5195e-05, No Iterations 1
ExecutionTime = 0.729697 s  ClockTime = 1 s

Courant Number mean: 0 max: 0
Time = 2s

DICPCG:  Solving for w, Initial residual = 0.0486441, Final residual = 5.77139e-12, No Iterations 1
Global Volume-Averaged Solid Fraction (Gs) = 0.014844
DICPCG:  Solving for T, Initial residual = 0.0160256, Final residual = 3.838e-05, No Iterations 1
GAMG:  Solving for p_rgh, Initial residual = 0, Final residual = 0, No Iterations 0
time step continuity errors : sum local = 0, global = 0, cumulative = 0
DILUPBiCGStab:  Solving for omega, Initial residual = 0.000194806, Final residual = 1.72568e-06, No Iterations 1
DILUPBiCGStab:  Solving for k, Initial residual = 0.00372825, Final residual = 2.98897e-05, No Iterations 1
ExecutionTime = 0.793303 s  ClockTime = 1 s

Courant Number mean: 0 max: 0
Time = 2.25s

DICPCG:  Solving for w, Initial residual = 0.0478915, Final residual = 5.70064e-12, No Iterations 1
Global Volume-Averaged Solid Fraction (Gs) = 0.0151741
DICPCG:  Solving for T, Initial residual = 0.0145142, Final residual = 3.0317e-05, No Iterations 1
GAMG:  Solving for p_rgh, Initial residual = 0, Final residual = 0, No Iterations 0
time step continuity errors : sum local = 0, global = 0, cumulative = 0
DILUPBiCGStab:  Solving for omega, Initial residual = 0.000162833, Final residual = 1.48812e-06, No Iterations 1
DILUPBiCGStab:  Solving for k, Initial residual = 0.00347503, Final residual = 2.72884e-05, No Iterations 1
ExecutionTime = 0.857718 s  ClockTime = 1 s

Courant Number mean: 0 max: 0
Time = 2.5s

DICPCG:  Solving for w, Initial residual = 0.0433908, Final residual = 5.19439e-12, No Iterations 1
Global Volume-Averaged Solid Fraction (Gs) = 0.0154361
DICPCG:  Solving for T, Initial residual = 0.0133271, Final residual = 2.48629e-05, No Iterations 1
GAMG:  Solving for p_rgh, Initial residual = 0, Final residual = 0, No Iterations 0
time step continuity errors : sum local = 0, global = 0, cumulative = 0
DILUPBiCGStab:  Solving for omega, Initial residual = 0.000140513, Final residual = 1.26441e-06, No Iterations 1
DILUPBiCGStab:  Solving for k, Initial residual = 0.00334816, Final residual = 2.54903e-05, No Iterations 1
ExecutionTime = 1.01493 s  ClockTime = 1 s

Courant Number mean: 0 max: 0
Time = 2.75s

DICPCG:  Solving for w, Initial residual = 0.0427363, Final residual = 5.11806e-12, No Iterations 1
Global Volume-Averaged Solid Fraction (Gs) = 0.0156554
DICPCG:  Solving for T, Initial residual = 0.0123487, Final residual = 2.09025e-05, No Iterations 1
GAMG:  Solving for p_rgh, Initial residual = 0, Final residual = 0, No Iterations 0
time step continuity errors : sum local = 0, global = 0, cumulative = 0
DILUPBiCGStab:  Solving for omega, Initial residual = 0.000124609, Final residual = 1.04144e-06, No Iterations 1
DILUPBiCGStab:  Solving for k, Initial residual = 0.00329107, Final residual = 2.4302e-05, No Iterations 1
ExecutionTime = 1.0803 s  ClockTime = 1 s

Courant Number mean: 0 max: 0
Time = 3s

DICPCG:  Solving for w, Initial residual = 0.0345048, Final residual = 4.10811e-12, No Iterations 1
Global Volume-Averaged Solid Fraction (Gs) = 0.0158447
DICPCG:  Solving for T, Initial residual = 0.0115334, Final residual = 1.79421e-05, No Iterations 1
GAMG:  Solving for p_rgh, Initial residual = 0, Final residual = 0, No Iterations 0
time step continuity errors : sum local = 0, global = 0, cumulative = 0
DILUPBiCGStab:  Solving for omega, Initial residual = 0.000112842, Final residual = 8.4539e-07, No Iterations 1
DILUPBiCGStab:  Solving for k, Initial residual = 0.00327557, Final residual = 2.33789e-05, No Iterations 1
ExecutionTime = 1.14826 s  ClockTime = 1 s

Courant Number mean: 0 max: 0
Time = 3.25s

DICPCG:  Solving for w, Initial residual = 0.0337441, Final residual = 4.0166e-12, No Iterations 1
Global Volume-Averaged Solid Fraction (Gs) = 0.0160115
DICPCG:  Solving for T, Initial residual = 0.0108387, Final residual = 1.56438e-05, No Iterations 1
GAMG:  Solving for p_rgh, Initial residual = 0, Final residual = 0, No Iterations 0
time step continuity errors : sum local = 0, global = 0, cumulative = 0
DILUPBiCGStab:  Solving for omega, Initial residual = 0.000103768, Final residual = 6.78663e-07, No Iterations 1
DILUPBiCGStab:  Solving for k, Initial residual = 0.00328682, Final residual = 2.2665e-05, No Iterations 1
ExecutionTime = 1.21207 s  ClockTime = 1 s

Courant Number mean: 0 max: 0
Time = 3.5s

DICPCG:  Solving for w, Initial residual = 0.0296818, Final residual = 3.54457e-12, No Iterations 1
Global Volume-Averaged Solid Fraction (Gs) = 0.0161606
DICPCG:  Solving for T, Initial residual = 0.0102282, Final residual = 1.37986e-05, No Iterations 1
GAMG:  Solving for p_rgh, Initial residual = 0, Final residual = 0, No Iterations 0
time step continuity errors : sum local = 0, global = 0, cumulative = 0
DILUPBiCGStab:  Solving for omega, Initial residual = 9.66978e-05, Final residual = 5.44396e-07, No Iterations 1
DILUPBiCGStab:  Solving for k, Initial residual = 0.00331349, Final residual = 2.21239e-05, No Iterations 1
ExecutionTime = 1.27699 s  ClockTime = 2 s

Courant Number mean: 0 max: 0
Time = 3.75s

DICPCG:  Solving for w, Initial residual = 0.0286658, Final residual = 3.43536e-12, No Iterations 1
Global Volume-Averaged Solid Fraction (Gs) = 0.0168037
DICPCG:  Solving for T, Initial residual = 0.0218861, Final residual = 6.02645e-05, No Iterations 1
GAMG:  Solving for p_rgh, Initial residual = 0, Final residual = 0, No Iterations 0
time step continuity errors : sum local = 0, global = 0, cumulative = 0
DILUPBiCGStab:  Solving for omega, Initial residual = 9.18289e-05, Final residual = 4.4751e-07, No Iterations 1
DILUPBiCGStab:  Solving for k, Initial residual = 0.00335509, Final residual = 2.17944e-05, No Iterations 1
ExecutionTime = 1.34398 s  ClockTime = 2 s

Courant Number mean: 0 max: 0
Time = 4s

DICPCG:  Solving for w, Initial residual = 0.0278493, Final residual = 3.32683e-12, No Iterations 1
Global Volume-Averaged Solid Fraction (Gs) = 0.0183956
DICPCG:  Solving for T, Initial residual = 0.0182238, Final residual = 8.09669e-05, No Iterations 1
GAMG:  Solving for p_rgh, Initial residual = 0, Final residual = 0, No Iterations 0
time step continuity errors : sum local = 0, global = 0, cumulative = 0
DILUPBiCGStab:  Solving for omega, Initial residual = 8.82338e-05, Final residual = 3.811e-07, No Iterations 1
DILUPBiCGStab:  Solving for k, Initial residual = 0.00341034, Final residual = 2.1502e-05, No Iterations 1
ExecutionTime = 1.40716 s  ClockTime = 2 s

Courant Number mean: 0 max: 0
Time = 4.25s

DICPCG:  Solving for w, Initial residual = 0.0250588, Final residual = 2.97714e-12, No Iterations 1
Global Volume-Averaged Solid Fraction (Gs) = 0.0172551
DICPCG:  Solving for T, Initial residual = 0.0177695, Final residual = 5.41883e-05, No Iterations 1
GAMG:  Solving for p_rgh, Initial residual = 0, Final residual = 0, No Iterations 0
time step continuity errors : sum local = 0, global = 0, cumulative = 0
DILUPBiCGStab:  Solving for omega, Initial residual = 8.56558e-05, Final residual = 3.3877e-07, No Iterations 1
DILUPBiCGStab:  Solving for k, Initial residual = 0.00346763, Final residual = 2.13584e-05, No Iterations 1
ExecutionTime = 1.46914 s  ClockTime = 2 s

Courant Number mean: 0 max: 0
Time = 4.5s

DICPCG:  Solving for w, Initial residual = 0.0231664, Final residual = 2.75897e-12, No Iterations 1
Global Volume-Averaged Solid Fraction (Gs) = 0.018743
DICPCG:  Solving for T, Initial residual = 0.019273, Final residual = 8.10399e-05, No Iterations 1
GAMG:  Solving for p_rgh, Initial residual = 0, Final residual = 0, No Iterations 0
time step continuity errors : sum local = 0, global = 0, cumulative = 0
DILUPBiCGStab:  Solving for omega, Initial residual = 8.47708e-05, Final residual = 3.19799e-07, No Iterations 1
DILUPBiCGStab:  Solving for k, Initial residual = 0.00352766, Final residual = 2.12082e-05, No Iterations 1
ExecutionTime = 1.53191 s  ClockTime = 2 s

Courant Number mean: 0 max: 0
Time = 4.75s

DICPCG:  Solving for w, Initial residual = 0.0236682, Final residual = 2.83149e-12, No Iterations 1
Global Volume-Averaged Solid Fraction (Gs) = 0.0173933
DICPCG:  Solving for T, Initial residual = 0.0163789, Final residual = 5.0544e-05, No Iterations 1
GAMG:  Solving for p_rgh, Initial residual = 0, Final residual = 0, No Iterations 0
time step continuity errors : sum local = 0, global = 0, cumulative = 0
DILUPBiCGStab:  Solving for omega, Initial residual = 8.46261e-05, Final residual = 3.22376e-07, No Iterations 1
DILUPBiCGStab:  Solving for k, Initial residual = 0.00359025, Final residual = 2.10589e-05, No Iterations 1
ExecutionTime = 1.59653 s  ClockTime = 2 s

Courant Number mean: 0 max: 0
Time = 5s

DICPCG:  Solving for w, Initial residual = 0.0209752, Final residual = 2.50378e-12, No Iterations 1
Global Volume-Averaged Solid Fraction (Gs) = 0.0188023
DICPCG:  Solving for T, Initial residual = 0.0190285, Final residual = 7.88342e-05, No Iterations 1
GAMG:  Solving for p_rgh, Initial residual = 0, Final residual = 0, No Iterations 0
time step continuity errors : sum local = 0, global = 0, cumulative = 0
DILUPBiCGStab:  Solving for omega, Initial residual = 8.43738e-05, Final residual = 3.24236e-07, No Iterations 1
DILUPBiCGStab:  Solving for k, Initial residual = 0.00365284, Final residual = 2.09123e-05, No Iterations 1
ExecutionTime = 1.75452 s  ClockTime = 2 s

Courant Number mean: 0 max: 0
Time = 5.25s

DICPCG:  Solving for w, Initial residual = 0.0211699, Final residual = 2.52591e-12, No Iterations 1
Global Volume-Averaged Solid Fraction (Gs) = 0.017602
DICPCG:  Solving for T, Initial residual = 0.0155512, Final residual = 4.78408e-05, No Iterations 1
GAMG:  Solving for p_rgh, Initial residual = 0, Final residual = 0, No Iterations 0
time step continuity errors : sum local = 0, global = 0, cumulative = 0
DILUPBiCGStab:  Solving for omega, Initial residual = 8.41856e-05, Final residual = 3.28686e-07, No Iterations 1
DILUPBiCGStab:  Solving for k, Initial residual = 0.00371982, Final residual = 2.07677e-05, No Iterations 1
ExecutionTime = 1.82515 s  ClockTime = 2 s

Courant Number mean: 0 max: 0
Time = 5.5s

DICPCG:  Solving for w, Initial residual = 0.0201844, Final residual = 2.40628e-12, No Iterations 1
Global Volume-Averaged Solid Fraction (Gs) = 0.0188243
DICPCG:  Solving for T, Initial residual = 0.0185122, Final residual = 7.62777e-05, No Iterations 1
GAMG:  Solving for p_rgh, Initial residual = 0, Final residual = 0, No Iterations 0
time step continuity errors : sum local = 0, global = 0, cumulative = 0
DILUPBiCGStab:  Solving for omega, Initial residual = 8.38948e-05, Final residual = 3.30813e-07, No Iterations 1
DILUPBiCGStab:  Solving for k, Initial residual = 0.00378944, Final residual = 2.07022e-05, No Iterations 1
ExecutionTime = 1.89103 s  ClockTime = 2 s

Courant Number mean: 0 max: 0
Time = 5.75s

DICPCG:  Solving for w, Initial residual = 0.0177965, Final residual = 2.12643e-12, No Iterations 1
Global Volume-Averaged Solid Fraction (Gs) = 0.0178847
DICPCG:  Solving for T, Initial residual = 0.0149147, Final residual = 4.57256e-05, No Iterations 1
GAMG:  Solving for p_rgh, Initial residual = 0, Final residual = 0, No Iterations 0
time step continuity errors : sum local = 0, global = 0, cumulative = 0
DILUPBiCGStab:  Solving for omega, Initial residual = 8.3454e-05, Final residual = 3.30825e-07, No Iterations 1
DILUPBiCGStab:  Solving for k, Initial residual = 0.00386028, Final residual = 2.06522e-05, No Iterations 1
ExecutionTime = 1.96224 s  ClockTime = 2 s

Courant Number mean: 0 max: 0
Time = 6s

DICPCG:  Solving for w, Initial residual = 0.0178736, Final residual = 2.1281e-12, No Iterations 1
Global Volume-Averaged Solid Fraction (Gs) = 0.0188453
DICPCG:  Solving for T, Initial residual = 0.0179626, Final residual = 7.37966e-05, No Iterations 1
GAMG:  Solving for p_rgh, Initial residual = 0, Final residual = 0, No Iterations 0
time step continuity errors : sum local = 0, global = 0, cumulative = 0
DILUPBiCGStab:  Solving for omega, Initial residual = 8.28876e-05, Final residual = 3.29232e-07, No Iterations 1
DILUPBiCGStab:  Solving for k, Initial residual = 0.00393163, Final residual = 2.06002e-05, No Iterations 1
ExecutionTime = 2.03451 s  ClockTime = 2 s

Courant Number mean: 0 max: 0
Time = 6.25s

DICPCG:  Solving for w, Initial residual = 0.0187457, Final residual = 2.24473e-12, No Iterations 1
Global Volume-Averaged Solid Fraction (Gs) = 0.0182098
DICPCG:  Solving for T, Initial residual = 0.014382, Final residual = 4.40204e-05, No Iterations 1
GAMG:  Solving for p_rgh, Initial residual = 0, Final residual = 0, No Iterations 0
time step continuity errors : sum local = 0, global = 0, cumulative = 0
DILUPBiCGStab:  Solving for omega, Initial residual = 8.21786e-05, Final residual = 3.26588e-07, No Iterations 1
DILUPBiCGStab:  Solving for k, Initial residual = 0.00400045, Final residual = 2.05164e-05, No Iterations 1
ExecutionTime = 2.09818 s  ClockTime = 2 s

Courant Number mean: 0 max: 0
Time = 6.5s

DICPCG:  Solving for w, Initial residual = 0.0166828, Final residual = 1.99693e-12, No Iterations 1
Global Volume-Averaged Solid Fraction (Gs) = 0.0188687
DICPCG:  Solving for T, Initial residual = 0.0174242, Final residual = 7.14467e-05, No Iterations 1
GAMG:  Solving for p_rgh, Initial residual = 0, Final residual = 0, No Iterations 0
time step continuity errors : sum local = 0, global = 0, cumulative = 0
DILUPBiCGStab:  Solving for omega, Initial residual = 8.13501e-05, Final residual = 3.22672e-07, No Iterations 1
DILUPBiCGStab:  Solving for k, Initial residual = 0.00407224, Final residual = 2.04243e-05, No Iterations 1
ExecutionTime = 2.16242 s  ClockTime = 2 s

Courant Number mean: 0 max: 0
Time = 6.75s

DICPCG:  Solving for w, Initial residual = 0.0147664, Final residual = 1.75388e-12, No Iterations 1
Global Volume-Averaged Solid Fraction (Gs) = 0.0185543
DICPCG:  Solving for T, Initial residual = 0.0139124, Final residual = 4.25831e-05, No Iterations 1
GAMG:  Solving for p_rgh, Initial residual = 0, Final residual = 0, No Iterations 0
time step continuity errors : sum local = 0, global = 0, cumulative = 0
DILUPBiCGStab:  Solving for omega, Initial residual = 8.04517e-05, Final residual = 3.18009e-07, No Iterations 1
DILUPBiCGStab:  Solving for k, Initial residual = 0.00414515, Final residual = 2.0365e-05, No Iterations 1
ExecutionTime = 2.22662 s  ClockTime = 3 s

Courant Number mean: 0 max: 0
Time = 7s

DICPCG:  Solving for w, Initial residual = 0.0157997, Final residual = 1.87611e-12, No Iterations 1
Global Volume-Averaged Solid Fraction (Gs) = 0.0188935
DICPCG:  Solving for T, Initial residual = 0.0168925, Final residual = 6.9171e-05, No Iterations 1
GAMG:  Solving for p_rgh, Initial residual = 0, Final residual = 0, No Iterations 0
time step continuity errors : sum local = 0, global = 0, cumulative = 0
DILUPBiCGStab:  Solving for omega, Initial residual = 7.94794e-05, Final residual = 3.12859e-07, No Iterations 1
DILUPBiCGStab:  Solving for k, Initial residual = 0.0042186, Final residual = 2.03172e-05, No Iterations 1
ExecutionTime = 2.29085 s  ClockTime = 3 s

Courant Number mean: 0 max: 0
Time = 7.25s

DICPCG:  Solving for w, Initial residual = 0.0147949, Final residual = 1.75916e-12, No Iterations 1
Global Volume-Averaged Solid Fraction (Gs) = 0.0189044
DICPCG:  Solving for T, Initial residual = 0.0134742, Final residual = 4.12909e-05, No Iterations 1
GAMG:  Solving for p_rgh, Initial residual = 0, Final residual = 0, No Iterations 0
time step continuity errors : sum local = 0, global = 0, cumulative = 0
DILUPBiCGStab:  Solving for omega, Initial residual = 7.84459e-05, Final residual = 3.07319e-07, No Iterations 1
DILUPBiCGStab:  Solving for k, Initial residual = 0.00429243, Final residual = 2.02727e-05, No Iterations 1
ExecutionTime = 2.35722 s  ClockTime = 3 s

Courant Number mean: 0 max: 0
Time = 7.5s

DICPCG:  Solving for w, Initial residual = 0.0157382, Final residual = 1.88709e-12, No Iterations 1
Global Volume-Averaged Solid Fraction (Gs) = 0.0191625
DICPCG:  Solving for T, Initial residual = 0.00886696, Final residual = 3.64299e-05, No Iterations 1
GAMG:  Solving for p_rgh, Initial residual = 0, Final residual = 0, No Iterations 0
time step continuity errors : sum local = 0, global = 0, cumulative = 0
DILUPBiCGStab:  Solving for omega, Initial residual = 7.73517e-05, Final residual = 3.01709e-07, No Iterations 1
DILUPBiCGStab:  Solving for k, Initial residual = 0.00436345, Final residual = 2.02101e-05, No Iterations 1
ExecutionTime = 2.51399 s  ClockTime = 3 s

Courant Number mean: 0 max: 0
Time = 7.75s

DICPCG:  Solving for w, Initial residual = 0.0135851, Final residual = 1.62451e-12, No Iterations 1
Global Volume-Averaged Solid Fraction (Gs) = 0.0195386
DICPCG:  Solving for T, Initial residual = 0.0194763, Final residual = 6.98706e-05, No Iterations 1
GAMG:  Solving for p_rgh, Initial residual = 0, Final residual = 0, No Iterations 0
time step continuity errors : sum local = 0, global = 0, cumulative = 0
DILUPBiCGStab:  Solving for omega, Initial residual = 7.62104e-05, Final residual = 2.95444e-07, No Iterations 1
DILUPBiCGStab:  Solving for k, Initial residual = 0.00443754, Final residual = 2.01577e-05, No Iterations 1
ExecutionTime = 2.58237 s  ClockTime = 3 s

Courant Number mean: 0 max: 0
Time = 8s

DICPCG:  Solving for w, Initial residual = 0.0131142, Final residual = 1.55456e-12, No Iterations 1
Global Volume-Averaged Solid Fraction (Gs) = 0.0188045
DICPCG:  Solving for T, Initial residual = 0.0120978, Final residual = 3.80141e-05, No Iterations 1
GAMG:  Solving for p_rgh, Initial residual = 0, Final residual = 0, No Iterations 0
time step continuity errors : sum local = 0, global = 0, cumulative = 0
DILUPBiCGStab:  Solving for omega, Initial residual = 7.50511e-05, Final residual = 2.89063e-07, No Iterations 1
DILUPBiCGStab:  Solving for k, Initial residual = 0.00451232, Final residual = 2.01301e-05, No Iterations 1
ExecutionTime = 2.6453 s  ClockTime = 3 s

Courant Number mean: 0 max: 0
Time = 8.25s

DICPCG:  Solving for w, Initial residual = 0.0122469, Final residual = 1.45493e-12, No Iterations 1
Global Volume-Averaged Solid Fraction (Gs) = 0.0190401
DICPCG:  Solving for T, Initial residual = 0.00803337, Final residual = 3.37902e-05, No Iterations 1
GAMG:  Solving for p_rgh, Initial residual = 0, Final residual = 0, No Iterations 0
time step continuity errors : sum local = 0, global = 0, cumulative = 0
DILUPBiCGStab:  Solving for omega, Initial residual = 7.38625e-05, Final residual = 2.8263e-07, No Iterations 1
DILUPBiCGStab:  Solving for k, Initial residual = 0.0045872, Final residual = 2.01105e-05, No Iterations 1
ExecutionTime = 2.70893 s  ClockTime = 3 s

Courant Number mean: 0 max: 0
Time = 8.5s

DICPCG:  Solving for w, Initial residual = 0.0133756, Final residual = 1.60205e-12, No Iterations 1
Global Volume-Averaged Solid Fraction (Gs) = 0.0195747
DICPCG:  Solving for T, Initial residual = 0.0195058, Final residual = 6.88675e-05, No Iterations 1
GAMG:  Solving for p_rgh, Initial residual = 0, Final residual = 0, No Iterations 0
time step continuity errors : sum local = 0, global = 0, cumulative = 0
DILUPBiCGStab:  Solving for omega, Initial residual = 7.26497e-05, Final residual = 2.76147e-07, No Iterations 1
DILUPBiCGStab:  Solving for k, Initial residual = 0.00466202, Final residual = 2.00975e-05, No Iterations 1
ExecutionTime = 2.77311 s  ClockTime = 3 s

Courant Number mean: 0 max: 0
Time = 8.75s

DICPCG:  Solving for w, Initial residual = 0.0126881, Final residual = 1.52139e-12, No Iterations 1
Global Volume-Averaged Solid Fraction (Gs) = 0.0187948
DICPCG:  Solving for T, Initial residual = 0.0115802, Final residual = 3.58657e-05, No Iterations 1
GAMG:  Solving for p_rgh, Initial residual = 0, Final residual = 0, No Iterations 0
time step continuity errors : sum local = 0, global = 0, cumulative = 0
DILUPBiCGStab:  Solving for omega, Initial residual = 7.14059e-05, Final residual = 2.69484e-07, No Iterations 1
DILUPBiCGStab:  Solving for k, Initial residual = 0.00473377, Final residual = 2.00568e-05, No Iterations 1
ExecutionTime = 2.83619 s  ClockTime = 3 s

Courant Number mean: 0 max: 0
Time = 9s

DICPCG:  Solving for w, Initial residual = 0.0125837, Final residual = 1.49444e-12, No Iterations 1
Global Volume-Averaged Solid Fraction (Gs) = 0.0190717
DICPCG:  Solving for T, Initial residual = 0.00765844, Final residual = 3.21513e-05, No Iterations 1
GAMG:  Solving for p_rgh, Initial residual = 0, Final residual = 0, No Iterations 0
time step continuity errors : sum local = 0, global = 0, cumulative = 0
DILUPBiCGStab:  Solving for omega, Initial residual = 7.0145e-05, Final residual = 2.63045e-07, No Iterations 1
DILUPBiCGStab:  Solving for k, Initial residual = 0.00480836, Final residual = 2.00333e-05, No Iterations 1
ExecutionTime = 2.89929 s  ClockTime = 3 s

Courant Number mean: 0 max: 0
Time = 9.25s

DICPCG:  Solving for w, Initial residual = 0.011086, Final residual = 1.32092e-12, No Iterations 1
Global Volume-Averaged Solid Fraction (Gs) = 0.0195779
DICPCG:  Solving for T, Initial residual = 0.019208, Final residual = 6.75832e-05, No Iterations 1
GAMG:  Solving for p_rgh, Initial residual = 0, Final residual = 0, No Iterations 0
time step continuity errors : sum local = 0, global = 0, cumulative = 0
DILUPBiCGStab:  Solving for omega, Initial residual = 6.88848e-05, Final residual = 2.5659e-07, No Iterations 1
DILUPBiCGStab:  Solving for k, Initial residual = 0.00488343, Final residual = 2.00373e-05, No Iterations 1
ExecutionTime = 2.96176 s  ClockTime = 3 s

Courant Number mean: 0 max: 0
Time = 9.5s

DICPCG:  Solving for w, Initial residual = 0.0115768, Final residual = 1.38463e-12, No Iterations 1
Global Volume-Averaged Solid Fraction (Gs) = 0.0189135
DICPCG:  Solving for T, Initial residual = 0.0112128, Final residual = 3.42843e-05, No Iterations 1
GAMG:  Solving for p_rgh, Initial residual = 0, Final residual = 0, No Iterations 0
time step continuity errors : sum local = 0, global = 0, cumulative = 0
DILUPBiCGStab:  Solving for omega, Initial residual = 6.76131e-05, Final residual = 2.50143e-07, No Iterations 1
DILUPBiCGStab:  Solving for k, Initial residual = 0.00495815, Final residual = 2.00436e-05, No Iterations 1
ExecutionTime = 3.02424 s  ClockTime = 3 s

Courant Number mean: 0 max: 0
Time = 9.75s

DICPCG:  Solving for w, Initial residual = 0.0107956, Final residual = 1.28891e-12, No Iterations 1
Global Volume-Averaged Solid Fraction (Gs) = 0.0192132
DICPCG:  Solving for T, Initial residual = 0.00738792, Final residual = 3.08875e-05, No Iterations 1
GAMG:  Solving for p_rgh, Initial residual = 0, Final residual = 0, No Iterations 0
time step continuity errors : sum local = 0, global = 0, cumulative = 0
DILUPBiCGStab:  Solving for omega, Initial residual = 6.63192e-05, Final residual = 2.4362e-07, No Iterations 1
DILUPBiCGStab:  Solving for k, Initial residual = 0.00502922, Final residual = 2.00207e-05, No Iterations 1
ExecutionTime = 3.08817 s  ClockTime = 3 s

Courant Number mean: 0 max: 0
Time = 10s

DICPCG:  Solving for w, Initial residual = 0.0115823, Final residual = 1.3789e-12, No Iterations 1
Global Volume-Averaged Solid Fraction (Gs) = 0.0195835
DICPCG:  Solving for T, Initial residual = 0.0188118, Final residual = 6.60959e-05, No Iterations 1
GAMG:  Solving for p_rgh, Initial residual = 0, Final residual = 0, No Iterations 0
time step continuity errors : sum local = 0, global = 0, cumulative = 0
DILUPBiCGStab:  Solving for omega, Initial residual = 6.50225e-05, Final residual = 2.3727e-07, No Iterations 1
DILUPBiCGStab:  Solving for k, Initial residual = 0.00510336, Final residual = 2.00106e-05, No Iterations 1
ExecutionTime = 3.24457 s  ClockTime = 4 s

Courant Number mean: 0 max: 0
Time = 10.25s

DICPCG:  Solving for w, Initial residual = 0.0101359, Final residual = 1.20482e-12, No Iterations 1
Global Volume-Averaged Solid Fraction (Gs) = 0.0191028
DICPCG:  Solving for T, Initial residual = 0.0108896, Final residual = 3.30021e-05, No Iterations 1
GAMG:  Solving for p_rgh, Initial residual = 0, Final residual = 0, No Iterations 0
time step continuity errors : sum local = 0, global = 0, cumulative = 0
DILUPBiCGStab:  Solving for omega, Initial residual = 6.37342e-05, Final residual = 2.31039e-07, No Iterations 1
DILUPBiCGStab:  Solving for k, Initial residual = 0.00517782, Final residual = 2.00289e-05, No Iterations 1
ExecutionTime = 3.3077 s  ClockTime = 4 s

Courant Number mean: 0 max: 0
Time = 10.5s

DICPCG:  Solving for w, Initial residual = 0.0101756, Final residual = 1.21698e-12, No Iterations 1
Global Volume-Averaged Solid Fraction (Gs) = 0.019413
DICPCG:  Solving for T, Initial residual = 0.00716145, Final residual = 2.98384e-05, No Iterations 1
GAMG:  Solving for p_rgh, Initial residual = 0, Final residual = 0, No Iterations 0
time step continuity errors : sum local = 0, global = 0, cumulative = 0
DILUPBiCGStab:  Solving for omega, Initial residual = 6.24266e-05, Final residual = 2.24778e-07, No Iterations 1
DILUPBiCGStab:  Solving for k, Initial residual = 0.00524809, Final residual = 2.00104e-05, No Iterations 1
ExecutionTime = 3.37222 s  ClockTime = 4 s

Courant Number mean: 0 max: 0
Time = 10.75s

DICPCG:  Solving for w, Initial residual = 0.0100867, Final residual = 1.20413e-12, No Iterations 1
Global Volume-Averaged Solid Fraction (Gs) = 0.0195919
DICPCG:  Solving for T, Initial residual = 0.018397, Final residual = 6.45804e-05, No Iterations 1
GAMG:  Solving for p_rgh, Initial residual = 0, Final residual = 0, No Iterations 0
time step continuity errors : sum local = 0, global = 0, cumulative = 0
DILUPBiCGStab:  Solving for omega, Initial residual = 6.11243e-05, Final residual = 2.18672e-07, No Iterations 1
DILUPBiCGStab:  Solving for k, Initial residual = 0.0053216, Final residual = 2.00016e-05, No Iterations 1
ExecutionTime = 3.43532 s  ClockTime = 4 s

Courant Number mean: 0 max: 0
Time = 11s

DICPCG:  Solving for w, Initial residual = 0.00989733, Final residual = 1.18084e-12, No Iterations 1
Global Volume-Averaged Solid Fraction (Gs) = 0.019329
DICPCG:  Solving for T, Initial residual = 0.0106036, Final residual = 3.19501e-05, No Iterations 1
GAMG:  Solving for p_rgh, Initial residual = 0, Final residual = 0, No Iterations 0
time step continuity errors : sum local = 0, global = 0, cumulative = 0
DILUPBiCGStab:  Solving for omega, Initial residual = 5.98344e-05, Final residual = 2.12708e-07, No Iterations 1
DILUPBiCGStab:  Solving for k, Initial residual = 0.0053953, Final residual = 2.00158e-05, No Iterations 1
ExecutionTime = 3.49829 s  ClockTime = 4 s

Courant Number mean: 0 max: 0
Time = 11.25s

DICPCG:  Solving for w, Initial residual = 0.00993226, Final residual = 1.18662e-12, No Iterations 1
Global Volume-Averaged Solid Fraction (Gs) = 0.0196432
DICPCG:  Solving for T, Initial residual = 0.0069673, Final residual = 2.89612e-05, No Iterations 1
GAMG:  Solving for p_rgh, Initial residual = 0, Final residual = 0, No Iterations 0
time step continuity errors : sum local = 0, global = 0, cumulative = 0
DILUPBiCGStab:  Solving for omega, Initial residual = 5.85453e-05, Final residual = 2.06842e-07, No Iterations 1
DILUPBiCGStab:  Solving for k, Initial residual = 0.00546847, Final residual = 2.00291e-05, No Iterations 1
ExecutionTime = 3.56231 s  ClockTime = 4 s

Courant Number mean: 0 max: 0
Time = 11.5s

DICPCG:  Solving for w, Initial residual = 0.00927378, Final residual = 1.10544e-12, No Iterations 1
Global Volume-Averaged Solid Fraction (Gs) = 0.0196016
DICPCG:  Solving for T, Initial residual = 0.0179891, Final residual = 6.31014e-05, No Iterations 1
GAMG:  Solving for p_rgh, Initial residual = 0, Final residual = 0, No Iterations 0
time step continuity errors : sum local = 0, global = 0, cumulative = 0
DILUPBiCGStab:  Solving for omega, Initial residual = 5.72417e-05, Final residual = 2.01008e-07, No Iterations 1
DILUPBiCGStab:  Solving for k, Initial residual = 0.00553729, Final residual = 2.00097e-05, No Iterations 1
ExecutionTime = 3.62604 s  ClockTime = 4 s

Courant Number mean: 0 max: 0
Time = 11.75s

DICPCG:  Solving for w, Initial residual = 0.00903227, Final residual = 1.07236e-12, No Iterations 1
Global Volume-Averaged Solid Fraction (Gs) = 0.0195739
DICPCG:  Solving for T, Initial residual = 0.0103448, Final residual = 3.10584e-05, No Iterations 1
GAMG:  Solving for p_rgh, Initial residual = 0, Final residual = 0, No Iterations 0
time step continuity errors : sum local = 0, global = 0, cumulative = 0
DILUPBiCGStab:  Solving for omega, Initial residual = 5.59508e-05, Final residual = 1.95349e-07, No Iterations 1
DILUPBiCGStab:  Solving for k, Initial residual = 0.00560912, Final residual = 1.99997e-05, No Iterations 1
ExecutionTime = 3.68967 s  ClockTime = 4 s

Courant Number mean: 0 max: 0
Time = 12s

DICPCG:  Solving for w, Initial residual = 0.00925076, Final residual = 1.09964e-12, No Iterations 1
Global Volume-Averaged Solid Fraction (Gs) = 0.0198885
DICPCG:  Solving for T, Initial residual = 0.00679496, Final residual = 2.82046e-05, No Iterations 1
GAMG:  Solving for p_rgh, Initial residual = 0, Final residual = 0, No Iterations 0
time step continuity errors : sum local = 0, global = 0, cumulative = 0
DILUPBiCGStab:  Solving for omega, Initial residual = 5.46747e-05, Final residual = 1.89899e-07, No Iterations 1
DILUPBiCGStab:  Solving for k, Initial residual = 0.00568101, Final residual = 2.0013e-05, No Iterations 1
ExecutionTime = 3.75383 s  ClockTime = 4 s

Courant Number mean: 0 max: 0
Time = 12.25s

DICPCG:  Solving for w, Initial residual = 0.00903258, Final residual = 1.08509e-12, No Iterations 1
Global Volume-Averaged Solid Fraction (Gs) = 0.0196501
DICPCG:  Solving for T, Initial residual = 0.00520617, Final residual = 2.49473e-05, No Iterations 1
GAMG:  Solving for p_rgh, Initial residual = 0, Final residual = 0, No Iterations 0
time step continuity errors : sum local = 0, global = 0, cumulative = 0
DILUPBiCGStab:  Solving for omega, Initial residual = 5.33856e-05, Final residual = 1.84514e-07, No Iterations 1
DILUPBiCGStab:  Solving for k, Initial residual = 0.0057482, Final residual = 1.9991e-05, No Iterations 1
ExecutionTime = 3.81809 s  ClockTime = 4 s

Courant Number mean: 0 max: 0
Time = 12.5s

DICPCG:  Solving for w, Initial residual = 0.00872242, Final residual = 1.04388e-12, No Iterations 1
Global Volume-Averaged Solid Fraction (Gs) = 0.0198408
DICPCG:  Solving for T, Initial residual = 0.0190723, Final residual = 6.30588e-05, No Iterations 1
GAMG:  Solving for p_rgh, Initial residual = 0, Final residual = 0, No Iterations 0
time step continuity errors : sum local = 0, global = 0, cumulative = 0
DILUPBiCGStab:  Solving for omega, Initial residual = 5.21152e-05, Final residual = 1.79302e-07, No Iterations 1
DILUPBiCGStab:  Solving for k, Initial residual = 0.00581857, Final residual = 1.99798e-05, No Iterations 1
ExecutionTime = 3.97947 s  ClockTime = 4 s

Courant Number mean: 0 max: 0
Time = 12.75s

DICPCG:  Solving for w, Initial residual = 0.00848323, Final residual = 1.00367e-12, No Iterations 1
Global Volume-Averaged Solid Fraction (Gs) = 0.0194425
DICPCG:  Solving for T, Initial residual = 0.00970703, Final residual = 2.91325e-05, No Iterations 1
GAMG:  Solving for p_rgh, Initial residual = 0, Final residual = 0, No Iterations 0
time step continuity errors : sum local = 0, global = 0, cumulative = 0
DILUPBiCGStab:  Solving for omega, Initial residual = 5.08395e-05, Final residual = 1.74152e-07, No Iterations 1
DILUPBiCGStab:  Solving for k, Initial residual = 0.00588441, Final residual = 1.9953e-05, No Iterations 1
ExecutionTime = 4.04589 s  ClockTime = 4 s

Courant Number mean: 0 max: 0
Time = 13s

DICPCG:  Solving for w, Initial residual = 0.00797167, Final residual = 9.49349e-13, No Iterations 1
Global Volume-Averaged Solid Fraction (Gs) = 0.0197813
DICPCG:  Solving for T, Initial residual = 0.00637119, Final residual = 2.66349e-05, No Iterations 1
GAMG:  Solving for p_rgh, Initial residual = 0, Final residual = 0, No Iterations 0
time step continuity errors : sum local = 0, global = 0, cumulative = 0
DILUPBiCGStab:  Solving for omega, Initial residual = 4.95885e-05, Final residual = 1.6918e-07, No Iterations 1
DILUPBiCGStab:  Solving for k, Initial residual = 0.00595386, Final residual = 1.99422e-05, No Iterations 1
ExecutionTime = 4.11161 s  ClockTime = 4 s

Courant Number mean: 0 max: 0
Time = 13.25s

DICPCG:  Solving for w, Initial residual = 0.00797769, Final residual = 9.50868e-13, No Iterations 1
Global Volume-Averaged Solid Fraction (Gs) = 0.0196227
DICPCG:  Solving for T, Initial residual = 0.0175617, Final residual = 6.11342e-05, No Iterations 1
GAMG:  Solving for p_rgh, Initial residual = 0, Final residual = 0, No Iterations 0
time step continuity errors : sum local = 0, global = 0, cumulative = 0
DILUPBiCGStab:  Solving for omega, Initial residual = 4.8332e-05, Final residual = 1.64277e-07, No Iterations 1
DILUPBiCGStab:  Solving for k, Initial residual = 0.00601839, Final residual = 1.9915e-05, No Iterations 1
ExecutionTime = 4.17648 s  ClockTime = 4 s

Courant Number mean: 0 max: 0
Time = 13.5s

DICPCG:  Solving for w, Initial residual = 0.00854146, Final residual = 1.02465e-12, No Iterations 1
Global Volume-Averaged Solid Fraction (Gs) = 0.0198185
DICPCG:  Solving for T, Initial residual = 0.00979785, Final residual = 2.88691e-05, No Iterations 1
GAMG:  Solving for p_rgh, Initial residual = 0, Final residual = 0, No Iterations 0
time step continuity errors : sum local = 0, global = 0, cumulative = 0
DILUPBiCGStab:  Solving for omega, Initial residual = 4.71032e-05, Final residual = 1.59479e-07, No Iterations 1
DILUPBiCGStab:  Solving for k, Initial residual = 0.00608674, Final residual = 1.99056e-05, No Iterations 1
ExecutionTime = 4.24282 s  ClockTime = 5 s

Courant Number mean: 0 max: 0
Time = 13.75s

DICPCG:  Solving for w, Initial residual = 0.0081346, Final residual = 9.71579e-13, No Iterations 1
Global Volume-Averaged Solid Fraction (Gs) = 0.0201621
DICPCG:  Solving for T, Initial residual = 0.00640317, Final residual = 2.63813e-05, No Iterations 1
GAMG:  Solving for p_rgh, Initial residual = 0, Final residual = 0, No Iterations 0
time step continuity errors : sum local = 0, global = 0, cumulative = 0
DILUPBiCGStab:  Solving for omega, Initial residual = 4.5868e-05, Final residual = 1.55108e-07, No Iterations 1
DILUPBiCGStab:  Solving for k, Initial residual = 0.0061499, Final residual = 1.98774e-05, No Iterations 1
ExecutionTime = 4.30875 s  ClockTime = 5 s

Courant Number mean: 0 max: 0
Time = 14s

DICPCG:  Solving for w, Initial residual = 0.00706181, Final residual = 8.36518e-13, No Iterations 1
Global Volume-Averaged Solid Fraction (Gs) = 0.0199571
DICPCG:  Solving for T, Initial residual = 0.00486859, Final residual = 2.35251e-05, No Iterations 1
GAMG:  Solving for p_rgh, Initial residual = 0, Final residual = 0, No Iterations 0
time step continuity errors : sum local = 0, global = 0, cumulative = 0
DILUPBiCGStab:  Solving for omega, Initial residual = 4.46642e-05, Final residual = 1.50338e-07, No Iterations 1
DILUPBiCGStab:  Solving for k, Initial residual = 0.00621701, Final residual = 1.98733e-05, No Iterations 1
ExecutionTime = 4.37302 s  ClockTime = 5 s

Courant Number mean: 0 max: 0
Time = 14.25s

DICPCG:  Solving for w, Initial residual = 0.0077529, Final residual = 9.23691e-13, No Iterations 1
Global Volume-Averaged Solid Fraction (Gs) = 0.0198506
DICPCG:  Solving for T, Initial residual = 0.0184005, Final residual = 6.07333e-05, No Iterations 1
GAMG:  Solving for p_rgh, Initial residual = 0, Final residual = 0, No Iterations 0
time step continuity errors : sum local = 0, global = 0, cumulative = 0
DILUPBiCGStab:  Solving for omega, Initial residual = 4.34598e-05, Final residual = 1.46247e-07, No Iterations 1
DILUPBiCGStab:  Solving for k, Initial residual = 0.00627907, Final residual = 1.98429e-05, No Iterations 1
ExecutionTime = 4.4384 s  ClockTime = 5 s

Courant Number mean: 0 max: 0
Time = 14.5s

DICPCG:  Solving for w, Initial residual = 0.00758693, Final residual = 9.07554e-13, No Iterations 1
Global Volume-Averaged Solid Fraction (Gs) = 0.0198092
DICPCG:  Solving for T, Initial residual = 0.00925731, Final residual = 2.74151e-05, No Iterations 1
GAMG:  Solving for p_rgh, Initial residual = 0, Final residual = 0, No Iterations 0
time step continuity errors : sum local = 0, global = 0, cumulative = 0
DILUPBiCGStab:  Solving for omega, Initial residual = 4.22286e-05, Final residual = 1.4188e-07, No Iterations 1
DILUPBiCGStab:  Solving for k, Initial residual = 0.00633343, Final residual = 1.97296e-05, No Iterations 1
ExecutionTime = 4.50159 s  ClockTime = 5 s

Courant Number mean: 0 max: 0
Time = 14.75s

DICPCG:  Solving for w, Initial residual = 0.00804928, Final residual = 9.61661e-13, No Iterations 1
Global Volume-Averaged Solid Fraction (Gs) = 0.0201581
DICPCG:  Solving for T, Initial residual = 0.00605773, Final residual = 2.51628e-05, No Iterations 1
GAMG:  Solving for p_rgh, Initial residual = 0, Final residual = 0, No Iterations 0
time step continuity errors : sum local = 0, global = 0, cumulative = 0
DILUPBiCGStab:  Solving for omega, Initial residual = 4.10603e-05, Final residual = 1.3762e-07, No Iterations 1
DILUPBiCGStab:  Solving for k, Initial residual = 0.00639755, Final residual = 1.96849e-05, No Iterations 1
ExecutionTime = 4.56738 s  ClockTime = 5 s

Courant Number mean: 0 max: 0
Time = 15s

DICPCG:  Solving for w, Initial residual = 0.00685566, Final residual = 8.17269e-13, No Iterations 1
Global Volume-Averaged Solid Fraction (Gs) = 0.0199758
DICPCG:  Solving for T, Initial residual = 0.00462076, Final residual = 2.25538e-05, No Iterations 1
GAMG:  Solving for p_rgh, Initial residual = 0, Final residual = 0, No Iterations 0
time step continuity errors : sum local = 0, global = 0, cumulative = 0
DILUPBiCGStab:  Solving for omega, Initial residual = 3.99266e-05, Final residual = 1.3357e-07, No Iterations 1
DILUPBiCGStab:  Solving for k, Initial residual = 0.00646358, Final residual = 1.97155e-05, No Iterations 1
ExecutionTime = 4.72727 s  ClockTime = 5 s

Courant Number mean: 0 max: 0
Time = 15.25s

DICPCG:  Solving for w, Initial residual = 0.00676422, Final residual = 8.07295e-13, No Iterations 1
Global Volume-Averaged Solid Fraction (Gs) = 0.0198573
DICPCG:  Solving for T, Initial residual = 0.0182283, Final residual = 5.99538e-05, No Iterations 1
GAMG:  Solving for p_rgh, Initial residual = 0, Final residual = 0, No Iterations 0
time step continuity errors : sum local = 0, global = 0, cumulative = 0
DILUPBiCGStab:  Solving for omega, Initial residual = 3.88078e-05, Final residual = 1.29648e-07, No Iterations 1
DILUPBiCGStab:  Solving for k, Initial residual = 0.00652882, Final residual = 1.97512e-05, No Iterations 1
ExecutionTime = 4.79066 s  ClockTime = 5 s

Courant Number mean: 0 max: 0
Time = 15.5s

DICPCG:  Solving for w, Initial residual = 0.00695929, Final residual = 8.29823e-13, No Iterations 1
Global Volume-Averaged Solid Fraction (Gs) = 0.0198901
DICPCG:  Solving for T, Initial residual = 0.00901978, Final residual = 2.64072e-05, No Iterations 1
GAMG:  Solving for p_rgh, Initial residual = 0, Final residual = 0, No Iterations 0
time step continuity errors : sum local = 0, global = 0, cumulative = 0
DILUPBiCGStab:  Solving for omega, Initial residual = 3.77028e-05, Final residual = 1.25834e-07, No Iterations 1
DILUPBiCGStab:  Solving for k, Initial residual = 0.0065931, Final residual = 1.97844e-05, No Iterations 1
ExecutionTime = 4.85408 s  ClockTime = 5 s

Courant Number mean: 0 max: 0
Time = 15.75s

DICPCG:  Solving for w, Initial residual = 0.00707742, Final residual = 8.40968e-13, No Iterations 1
Global Volume-Averaged Solid Fraction (Gs) = 0.0202558
DICPCG:  Solving for T, Initial residual = 0.00588438, Final residual = 2.43182e-05, No Iterations 1
GAMG:  Solving for p_rgh, Initial residual = 0, Final residual = 0, No Iterations 0
time step continuity errors : sum local = 0, global = 0, cumulative = 0
DILUPBiCGStab:  Solving for omega, Initial residual = 3.66126e-05, Final residual = 1.22129e-07, No Iterations 1
DILUPBiCGStab:  Solving for k, Initial residual = 0.00665636, Final residual = 1.98151e-05, No Iterations 1
ExecutionTime = 4.91682 s  ClockTime = 5 s

Courant Number mean: 0 max: 0
Time = 16s

DICPCG:  Solving for w, Initial residual = 0.00669447, Final residual = 8.00491e-13, No Iterations 1
Global Volume-Averaged Solid Fraction (Gs) = 0.0200913
DICPCG:  Solving for T, Initial residual = 0.00446649, Final residual = 2.18815e-05, No Iterations 1
GAMG:  Solving for p_rgh, Initial residual = 0, Final residual = 0, No Iterations 0
time step continuity errors : sum local = 0, global = 0, cumulative = 0
DILUPBiCGStab:  Solving for omega, Initial residual = 3.55438e-05, Final residual = 1.18539e-07, No Iterations 1
DILUPBiCGStab:  Solving for k, Initial residual = 0.00671863, Final residual = 1.98439e-05, No Iterations 1
ExecutionTime = 4.9794 s  ClockTime = 5 s

Courant Number mean: 0 max: 0
Time = 16.25s

DICPCG:  Solving for w, Initial residual = 0.00679277, Final residual = 8.07747e-13, No Iterations 1
Global Volume-Averaged Solid Fraction (Gs) = 0.0198609
DICPCG:  Solving for T, Initial residual = 0.0179644, Final residual = 5.90459e-05, No Iterations 1
GAMG:  Solving for p_rgh, Initial residual = 0, Final residual = 0, No Iterations 0
time step continuity errors : sum local = 0, global = 0, cumulative = 0
DILUPBiCGStab:  Solving for omega, Initial residual = 3.44901e-05, Final residual = 1.15096e-07, No Iterations 1
DILUPBiCGStab:  Solving for k, Initial residual = 0.00677986, Final residual = 1.98708e-05, No Iterations 1
ExecutionTime = 5.04388 s  ClockTime = 5 s

Courant Number mean: 0 max: 0
Time = 16.5s

DICPCG:  Solving for w, Initial residual = 0.00636482, Final residual = 7.56958e-13, No Iterations 1
Global Volume-Averaged Solid Fraction (Gs) = 0.0200375
DICPCG:  Solving for T, Initial residual = 0.00882977, Final residual = 2.56308e-05, No Iterations 1
GAMG:  Solving for p_rgh, Initial residual = 0, Final residual = 0, No Iterations 0
time step continuity errors : sum local = 0, global = 0, cumulative = 0
DILUPBiCGStab:  Solving for omega, Initial residual = 3.34512e-05, Final residual = 1.11765e-07, No Iterations 1
DILUPBiCGStab:  Solving for k, Initial residual = 0.00683998, Final residual = 1.9896e-05, No Iterations 1
ExecutionTime = 5.11053 s  ClockTime = 5 s

Courant Number mean: 0 max: 0
Time = 16.75s

DICPCG:  Solving for w, Initial residual = 0.00664956, Final residual = 7.93034e-13, No Iterations 1
Global Volume-Averaged Solid Fraction (Gs) = 0.0204098
DICPCG:  Solving for T, Initial residual = 0.00574965, Final residual = 2.36479e-05, No Iterations 1
GAMG:  Solving for p_rgh, Initial residual = 0, Final residual = 0, No Iterations 0
time step continuity errors : sum local = 0, global = 0, cumulative = 0
DILUPBiCGStab:  Solving for omega, Initial residual = 3.2428e-05, Final residual = 1.08584e-07, No Iterations 1
DILUPBiCGStab:  Solving for k, Initial residual = 0.00689907, Final residual = 1.99197e-05, No Iterations 1
ExecutionTime = 5.17373 s  ClockTime = 5 s

Courant Number mean: 0 max: 0
Time = 17s

DICPCG:  Solving for w, Initial residual = 0.00612604, Final residual = 7.32751e-13, No Iterations 1
Global Volume-Averaged Solid Fraction (Gs) = 0.0202548
DICPCG:  Solving for T, Initial residual = 0.0043479, Final residual = 2.13361e-05, No Iterations 1
GAMG:  Solving for p_rgh, Initial residual = 0, Final residual = 0, No Iterations 0
time step continuity errors : sum local = 0, global = 0, cumulative = 0
DILUPBiCGStab:  Solving for omega, Initial residual = 3.14207e-05, Final residual = 1.05504e-07, No Iterations 1
DILUPBiCGStab:  Solving for k, Initial residual = 0.0069571, Final residual = 1.99413e-05, No Iterations 1
ExecutionTime = 5.23855 s  ClockTime = 6 s

Courant Number mean: 0 max: 0
Time = 17.25s

DICPCG:  Solving for w, Initial residual = 0.0065935, Final residual = 7.87444e-13, No Iterations 1
Global Volume-Averaged Solid Fraction (Gs) = 0.0199202
DICPCG:  Solving for T, Initial residual = 0.00370933, Final residual = 1.87902e-05, No Iterations 1
GAMG:  Solving for p_rgh, Initial residual = 0, Final residual = 0, No Iterations 0
time step continuity errors : sum local = 0, global = 0, cumulative = 0
DILUPBiCGStab:  Solving for omega, Initial residual = 3.04298e-05, Final residual = 1.02516e-07, No Iterations 1
DILUPBiCGStab:  Solving for k, Initial residual = 0.00701407, Final residual = 1.99615e-05, No Iterations 1
ExecutionTime = 5.30165 s  ClockTime = 6 s

Courant Number mean: 0 max: 0
Time = 17.5s

DICPCG:  Solving for w, Initial residual = 0.00622094, Final residual = 7.39689e-13, No Iterations 1
Global Volume-Averaged Solid Fraction (Gs) = 0.0199535
DICPCG:  Solving for T, Initial residual = 0.0184739, Final residual = 5.90624e-05, No Iterations 1
GAMG:  Solving for p_rgh, Initial residual = 0, Final residual = 0, No Iterations 0
time step continuity errors : sum local = 0, global = 0, cumulative = 0
DILUPBiCGStab:  Solving for omega, Initial residual = 2.94545e-05, Final residual = 9.9615e-08, No Iterations 1
DILUPBiCGStab:  Solving for k, Initial residual = 0.00706986, Final residual = 1.99798e-05, No Iterations 1
ExecutionTime = 5.45764 s  ClockTime = 6 s

Courant Number mean: 0 max: 0
Time = 17.75s

DICPCG:  Solving for w, Initial residual = 0.0060792, Final residual = 7.24095e-13, No Iterations 1
Global Volume-Averaged Solid Fraction (Gs) = 0.019903
DICPCG:  Solving for T, Initial residual = 0.00846376, Final residual = 2.42372e-05, No Iterations 1
GAMG:  Solving for p_rgh, Initial residual = 0, Final residual = 0, No Iterations 0
time step continuity errors : sum local = 0, global = 0, cumulative = 0
DILUPBiCGStab:  Solving for omega, Initial residual = 2.84953e-05, Final residual = 9.6809e-08, No Iterations 1
DILUPBiCGStab:  Solving for k, Initial residual = 0.00712457, Final residual = 1.99965e-05, No Iterations 1
ExecutionTime = 5.52186 s  ClockTime = 6 s

Courant Number mean: 0 max: 0
Time = 18s

DICPCG:  Solving for w, Initial residual = 0.00579952, Final residual = 6.93011e-13, No Iterations 1
Global Volume-Averaged Solid Fraction (Gs) = 0.0203101
DICPCG:  Solving for T, Initial residual = 0.005485, Final residual = 2.25183e-05, No Iterations 1
GAMG:  Solving for p_rgh, Initial residual = 0, Final residual = 0, No Iterations 0
time step continuity errors : sum local = 0, global = 0, cumulative = 0
DILUPBiCGStab:  Solving for omega, Initial residual = 2.7552e-05, Final residual = 9.41003e-08, No Iterations 1
DILUPBiCGStab:  Solving for k, Initial residual = 0.00717809, Final residual = 2.00111e-05, No Iterations 1
ExecutionTime = 5.58867 s  ClockTime = 6 s

Courant Number mean: 0 max: 0
Time = 18.25s

DICPCG:  Solving for w, Initial residual = 0.00613718, Final residual = 7.35484e-13, No Iterations 1
Global Volume-Averaged Solid Fraction (Gs) = 0.0201907
DICPCG:  Solving for T, Initial residual = 0.00412232, Final residual = 2.03986e-05, No Iterations 1
GAMG:  Solving for p_rgh, Initial residual = 0, Final residual = 0, No Iterations 0
time step continuity errors : sum local = 0, global = 0, cumulative = 0
DILUPBiCGStab:  Solving for omega, Initial residual = 2.66251e-05, Final residual = 9.15467e-08, No Iterations 1
DILUPBiCGStab:  Solving for k, Initial residual = 0.00723017, Final residual = 2.00232e-05, No Iterations 1
ExecutionTime = 5.6525 s  ClockTime = 6 s

Courant Number mean: 0 max: 0
Time = 18.5s

DICPCG:  Solving for w, Initial residual = 0.00590984, Final residual = 7.15538e-13, No Iterations 1
Global Volume-Averaged Solid Fraction (Gs) = 0.0198891
DICPCG:  Solving for T, Initial residual = 0.00351149, Final residual = 1.79344e-05, No Iterations 1
GAMG:  Solving for p_rgh, Initial residual = 0, Final residual = 0, No Iterations 0
time step continuity errors : sum local = 0, global = 0, cumulative = 0
DILUPBiCGStab:  Solving for omega, Initial residual = 2.57149e-05, Final residual = 8.90969e-08, No Iterations 1
DILUPBiCGStab:  Solving for k, Initial residual = 0.00728113, Final residual = 2.00339e-05, No Iterations 1
ExecutionTime = 5.71919 s  ClockTime = 6 s

Courant Number mean: 0 max: 0
Time = 18.75s

DICPCG:  Solving for w, Initial residual = 0.00512518, Final residual = 6.18532e-13, No Iterations 1
Global Volume-Averaged Solid Fraction (Gs) = 0.0199536
DICPCG:  Solving for T, Initial residual = 0.0183569, Final residual = 5.85797e-05, No Iterations 1
GAMG:  Solving for p_rgh, Initial residual = 0, Final residual = 0, No Iterations 0
time step continuity errors : sum local = 0, global = 0, cumulative = 0
DILUPBiCGStab:  Solving for omega, Initial residual = 2.48214e-05, Final residual = 8.67379e-08, No Iterations 1
DILUPBiCGStab:  Solving for k, Initial residual = 0.00733098, Final residual = 2.00434e-05, No Iterations 1
ExecutionTime = 5.78959 s  ClockTime = 6 s

Courant Number mean: 0 max: 0
Time = 19s

DICPCG:  Solving for w, Initial residual = 0.00532515, Final residual = 6.44723e-13, No Iterations 1
Global Volume-Averaged Solid Fraction (Gs) = 0.0199365
DICPCG:  Solving for T, Initial residual = 0.00827936, Final residual = 2.33124e-05, No Iterations 1
GAMG:  Solving for p_rgh, Initial residual = 0, Final residual = 0, No Iterations 0
time step continuity errors : sum local = 0, global = 0, cumulative = 0
DILUPBiCGStab:  Solving for omega, Initial residual = 2.39533e-05, Final residual = 8.44588e-08, No Iterations 1
DILUPBiCGStab:  Solving for k, Initial residual = 0.00737971, Final residual = 2.00515e-05, No Iterations 1
ExecutionTime = 5.86397 s  ClockTime = 6 s

Courant Number mean: 0 max: 0
Time = 19.25s

DICPCG:  Solving for w, Initial residual = 0.00554422, Final residual = 6.71296e-13, No Iterations 1
Global Volume-Averaged Solid Fraction (Gs) = 0.0203614
DICPCG:  Solving for T, Initial residual = 0.00534083, Final residual = 2.16878e-05, No Iterations 1
GAMG:  Solving for p_rgh, Initial residual = 0, Final residual = 0, No Iterations 0
time step continuity errors : sum local = 0, global = 0, cumulative = 0
DILUPBiCGStab:  Solving for omega, Initial residual = 2.31016e-05, Final residual = 8.22551e-08, No Iterations 1
DILUPBiCGStab:  Solving for k, Initial residual = 0.0074272, Final residual = 2.0058e-05, No Iterations 1
ExecutionTime = 5.92968 s  ClockTime = 6 s

Courant Number mean: 0 max: 0
Time = 19.5s

DICPCG:  Solving for w, Initial residual = 0.00545853, Final residual = 6.64229e-13, No Iterations 1
Global Volume-Averaged Solid Fraction (Gs) = 0.0202593
DICPCG:  Solving for T, Initial residual = 0.00397914, Final residual = 1.97167e-05, No Iterations 1
GAMG:  Solving for p_rgh, Initial residual = 0, Final residual = 0, No Iterations 0
time step continuity errors : sum local = 0, global = 0, cumulative = 0
DILUPBiCGStab:  Solving for omega, Initial residual = 2.22666e-05, Final residual = 8.01517e-08, No Iterations 1
DILUPBiCGStab:  Solving for k, Initial residual = 0.00747327, Final residual = 2.00625e-05, No Iterations 1
ExecutionTime = 5.99347 s  ClockTime = 6 s

Courant Number mean: 0 max: 0
Time = 19.75s

DICPCG:  Solving for w, Initial residual = 0.00531051, Final residual = 6.4678e-13, No Iterations 1
Global Volume-Averaged Solid Fraction (Gs) = 0.019974
DICPCG:  Solving for T, Initial residual = 0.00338304, Final residual = 1.7388e-05, No Iterations 1
GAMG:  Solving for p_rgh, Initial residual = 0, Final residual = 0, No Iterations 0
time step continuity errors : sum local = 0, global = 0, cumulative = 0
DILUPBiCGStab:  Solving for omega, Initial residual = 2.14481e-05, Final residual = 7.81786e-08, No Iterations 1
DILUPBiCGStab:  Solving for k, Initial residual = 0.00751816, Final residual = 2.00656e-05, No Iterations 1
ExecutionTime = 6.05788 s  ClockTime = 6 s

Courant Number mean: 0 max: 0
Time = 20s

DICPCG:  Solving for w, Initial residual = 0.0049741, Final residual = 6.01715e-13, No Iterations 1
Global Volume-Averaged Solid Fraction (Gs) = 0.0199557
DICPCG:  Solving for T, Initial residual = 0.0181374, Final residual = 5.78779e-05, No Iterations 1
GAMG:  Solving for p_rgh, Initial residual = 0, Final residual = 0, No Iterations 0
time step continuity errors : sum local = 0, global = 0, cumulative = 0
DILUPBiCGStab:  Solving for omega, Initial residual = 2.06461e-05, Final residual = 7.63076e-08, No Iterations 1
DILUPBiCGStab:  Solving for k, Initial residual = 0.0075619, Final residual = 2.00678e-05, No Iterations 1
ExecutionTime = 6.21907 s  ClockTime = 7 s

Courant Number mean: 0 max: 0
Time = 20.25s

DICPCG:  Solving for w, Initial residual = 0.00504561, Final residual = 6.09754e-13, No Iterations 1
Global Volume-Averaged Solid Fraction (Gs) = 0.0200502
DICPCG:  Solving for T, Initial residual = 0.00812554, Final residual = 2.26108e-05, No Iterations 1
GAMG:  Solving for p_rgh, Initial residual = 0, Final residual = 0, No Iterations 0
time step continuity errors : sum local = 0, global = 0, cumulative = 0
DILUPBiCGStab:  Solving for omega, Initial residual = 1.98609e-05, Final residual = 7.45098e-08, No Iterations 1
DILUPBiCGStab:  Solving for k, Initial residual = 0.0076045, Final residual = 2.00692e-05, No Iterations 1
ExecutionTime = 6.282 s  ClockTime = 7 s

Courant Number mean: 0 max: 0
Time = 20.5s

DICPCG:  Solving for w, Initial residual = 0.00518535, Final residual = 6.2958e-13, No Iterations 1
Global Volume-Averaged Solid Fraction (Gs) = 0.0204815
DICPCG:  Solving for T, Initial residual = 0.00522797, Final residual = 2.10602e-05, No Iterations 1
GAMG:  Solving for p_rgh, Initial residual = 0, Final residual = 0, No Iterations 0
time step continuity errors : sum local = 0, global = 0, cumulative = 0
DILUPBiCGStab:  Solving for omega, Initial residual = 1.90925e-05, Final residual = 7.27728e-08, No Iterations 1
DILUPBiCGStab:  Solving for k, Initial residual = 0.00764597, Final residual = 2.00713e-05, No Iterations 1
ExecutionTime = 6.34456 s  ClockTime = 7 s

Courant Number mean: 0 max: 0
Time = 20.75s

DICPCG:  Solving for w, Initial residual = 0.00524026, Final residual = 6.4059e-13, No Iterations 1
Global Volume-Averaged Solid Fraction (Gs) = 0.0203884
DICPCG:  Solving for T, Initial residual = 0.0038722, Final residual = 1.91724e-05, No Iterations 1
GAMG:  Solving for p_rgh, Initial residual = 0, Final residual = 0, No Iterations 0
time step continuity errors : sum local = 0, global = 0, cumulative = 0
DILUPBiCGStab:  Solving for omega, Initial residual = 1.83409e-05, Final residual = 7.11108e-08, No Iterations 1
DILUPBiCGStab:  Solving for k, Initial residual = 0.0076863, Final residual = 2.00726e-05, No Iterations 1
ExecutionTime = 6.40752 s  ClockTime = 7 s

Courant Number mean: 0 max: 0
Time = 21s

DICPCG:  Solving for w, Initial residual = 0.00475947, Final residual = 5.78851e-13, No Iterations 1
Global Volume-Averaged Solid Fraction (Gs) = 0.0201125
DICPCG:  Solving for T, Initial residual = 0.00328764, Final residual = 1.69678e-05, No Iterations 1
GAMG:  Solving for p_rgh, Initial residual = 0, Final residual = 0, No Iterations 0
time step continuity errors : sum local = 0, global = 0, cumulative = 0
DILUPBiCGStab:  Solving for omega, Initial residual = 1.7606e-05, Final residual = 6.95597e-08, No Iterations 1
DILUPBiCGStab:  Solving for k, Initial residual = 0.0077255, Final residual = 2.00729e-05, No Iterations 1
ExecutionTime = 6.47001 s  ClockTime = 7 s

Courant Number mean: 0 max: 0
Time = 21.25s

DICPCG:  Solving for w, Initial residual = 0.00475183, Final residual = 5.74372e-13, No Iterations 1
Global Volume-Averaged Solid Fraction (Gs) = 0.0199595
DICPCG:  Solving for T, Initial residual = 0.0178916, Final residual = 5.70912e-05, No Iterations 1
GAMG:  Solving for p_rgh, Initial residual = 0, Final residual = 0, No Iterations 0
time step continuity errors : sum local = 0, global = 0, cumulative = 0
DILUPBiCGStab:  Solving for omega, Initial residual = 1.68881e-05, Final residual = 6.80623e-08, No Iterations 1
DILUPBiCGStab:  Solving for k, Initial residual = 0.00776358, Final residual = 2.0072e-05, No Iterations 1
ExecutionTime = 6.53394 s  ClockTime = 7 s

Courant Number mean: 0 max: 0
Time = 21.5s

DICPCG:  Solving for w, Initial residual = 0.00512264, Final residual = 6.19256e-13, No Iterations 1
Global Volume-Averaged Solid Fraction (Gs) = 0.0202034
DICPCG:  Solving for T, Initial residual = 0.00798633, Final residual = 2.2035e-05, No Iterations 1
GAMG:  Solving for p_rgh, Initial residual = 0, Final residual = 0, No Iterations 0
time step continuity errors : sum local = 0, global = 0, cumulative = 0
DILUPBiCGStab:  Solving for omega, Initial residual = 1.61867e-05, Final residual = 6.65884e-08, No Iterations 1
DILUPBiCGStab:  Solving for k, Initial residual = 0.00780052, Final residual = 2.007e-05, No Iterations 1
ExecutionTime = 6.60018 s  ClockTime = 7 s

Courant Number mean: 0 max: 0
Time = 21.75s

DICPCG:  Solving for w, Initial residual = 0.0047804, Final residual = 5.79434e-13, No Iterations 1
Global Volume-Averaged Solid Fraction (Gs) = 0.0206363
DICPCG:  Solving for T, Initial residual = 0.00512965, Final residual = 2.05364e-05, No Iterations 1
GAMG:  Solving for p_rgh, Initial residual = 0, Final residual = 0, No Iterations 0
time step continuity errors : sum local = 0, global = 0, cumulative = 0
DILUPBiCGStab:  Solving for omega, Initial residual = 1.55083e-05, Final residual = 6.51899e-08, No Iterations 1
DILUPBiCGStab:  Solving for k, Initial residual = 0.00783635, Final residual = 2.0067e-05, No Iterations 1
ExecutionTime = 6.66631 s  ClockTime = 7 s

Courant Number mean: 0 max: 0
Time = 22s

DICPCG:  Solving for w, Initial residual = 0.0049185, Final residual = 5.9936e-13, No Iterations 1
Global Volume-Averaged Solid Fraction (Gs) = 0.0205485
DICPCG:  Solving for T, Initial residual = 0.00378454, Final residual = 1.87147e-05, No Iterations 1
GAMG:  Solving for p_rgh, Initial residual = 0, Final residual = 0, No Iterations 0
time step continuity errors : sum local = 0, global = 0, cumulative = 0
DILUPBiCGStab:  Solving for omega, Initial residual = 1.48486e-05, Final residual = 6.38501e-08, No Iterations 1
DILUPBiCGStab:  Solving for k, Initial residual = 0.00787106, Final residual = 2.00629e-05, No Iterations 1
ExecutionTime = 6.73029 s  ClockTime = 7 s

Courant Number mean: 0 max: 0
Time = 22.25s

DICPCG:  Solving for w, Initial residual = 0.00455327, Final residual = 5.50396e-13, No Iterations 1
Global Volume-Averaged Solid Fraction (Gs) = 0.020279
DICPCG:  Solving for T, Initial residual = 0.00320997, Final residual = 1.66134e-05, No Iterations 1
GAMG:  Solving for p_rgh, Initial residual = 0, Final residual = 0, No Iterations 0
time step continuity errors : sum local = 0, global = 0, cumulative = 0
DILUPBiCGStab:  Solving for omega, Initial residual = 1.42047e-05, Final residual = 6.25584e-08, No Iterations 1
DILUPBiCGStab:  Solving for k, Initial residual = 0.00790465, Final residual = 2.00576e-05, No Iterations 1
ExecutionTime = 6.79297 s  ClockTime = 7 s

Courant Number mean: 0 max: 0
Time = 22.5s

DICPCG:  Solving for w, Initial residual = 0.00450715, Final residual = 5.45477e-13, No Iterations 1
Global Volume-Averaged Solid Fraction (Gs) = 0.0199651
DICPCG:  Solving for T, Initial residual = 0.0141025, Final residual = 4.69309e-05, No Iterations 1
GAMG:  Solving for p_rgh, Initial residual = 0, Final residual = 0, No Iterations 0
time step continuity errors : sum local = 0, global = 0, cumulative = 0
DILUPBiCGStab:  Solving for omega, Initial residual = 1.3578e-05, Final residual = 6.13294e-08, No Iterations 1
DILUPBiCGStab:  Solving for k, Initial residual = 0.00793713, Final residual = 2.00514e-05, No Iterations 1
ExecutionTime = 6.94831 s  ClockTime = 7 s

Courant Number mean: 0 max: 0
Time = 22.75s

DICPCG:  Solving for w, Initial residual = 0.00441231, Final residual = 5.41654e-13, No Iterations 1
Global Volume-Averaged Solid Fraction (Gs) = 0.0202851
DICPCG:  Solving for T, Initial residual = 0.0103148, Final residual = 3.07785e-05, No Iterations 1
GAMG:  Solving for p_rgh, Initial residual = 0, Final residual = 0, No Iterations 0
time step continuity errors : sum local = 0, global = 0, cumulative = 0
DILUPBiCGStab:  Solving for omega, Initial residual = 1.29675e-05, Final residual = 6.01693e-08, No Iterations 1
DILUPBiCGStab:  Solving for k, Initial residual = 0.0079685, Final residual = 2.00442e-05, No Iterations 1
ExecutionTime = 7.01129 s  ClockTime = 7 s

Courant Number mean: 0 max: 0
Time = 23s

DICPCG:  Solving for w, Initial residual = 0.00426242, Final residual = 5.25147e-13, No Iterations 1
Global Volume-Averaged Solid Fraction (Gs) = 0.0206469
DICPCG:  Solving for T, Initial residual = 0.005683, Final residual = 2.03815e-05, No Iterations 1
GAMG:  Solving for p_rgh, Initial residual = 0, Final residual = 0, No Iterations 0
time step continuity errors : sum local = 0, global = 0, cumulative = 0
DILUPBiCGStab:  Solving for omega, Initial residual = 1.23726e-05, Final residual = 5.90954e-08, No Iterations 1
DILUPBiCGStab:  Solving for k, Initial residual = 0.00799878, Final residual = 2.00359e-05, No Iterations 1
ExecutionTime = 7.07508 s  ClockTime = 7 s

Courant Number mean: 0 max: 0
Time = 23.25s

DICPCG:  Solving for w, Initial residual = 0.00437778, Final residual = 5.37987e-13, No Iterations 1
Global Volume-Averaged Solid Fraction (Gs) = 0.0206932
DICPCG:  Solving for T, Initial residual = 0.00400377, Final residual = 1.89749e-05, No Iterations 1
GAMG:  Solving for p_rgh, Initial residual = 0, Final residual = 0, No Iterations 0
time step continuity errors : sum local = 0, global = 0, cumulative = 0
DILUPBiCGStab:  Solving for omega, Initial residual = 1.17933e-05, Final residual = 5.80576e-08, No Iterations 1
DILUPBiCGStab:  Solving for k, Initial residual = 0.00802796, Final residual = 2.00268e-05, No Iterations 1
ExecutionTime = 7.14414 s  ClockTime = 7 s

Courant Number mean: 0 max: 0
Time = 23.5s

DICPCG:  Solving for w, Initial residual = 0.00446865, Final residual = 5.48202e-13, No Iterations 1
Global Volume-Averaged Solid Fraction (Gs) = 0.0204774
DICPCG:  Solving for T, Initial residual = 0.00325694, Final residual = 1.68569e-05, No Iterations 1
GAMG:  Solving for p_rgh, Initial residual = 0, Final residual = 0, No Iterations 0
time step continuity errors : sum local = 0, global = 0, cumulative = 0
DILUPBiCGStab:  Solving for omega, Initial residual = 1.123e-05, Final residual = 5.69959e-08, No Iterations 1
DILUPBiCGStab:  Solving for k, Initial residual = 0.00805605, Final residual = 2.00169e-05, No Iterations 1
ExecutionTime = 7.21187 s  ClockTime = 7 s

Courant Number mean: 0 max: 0
Time = 23.75s

DICPCG:  Solving for w, Initial residual = 0.00407744, Final residual = 4.98293e-13, No Iterations 1
Global Volume-Averaged Solid Fraction (Gs) = 0.0201836
DICPCG:  Solving for T, Initial residual = 0.00287413, Final residual = 1.47797e-05, No Iterations 1
GAMG:  Solving for p_rgh, Initial residual = 0, Final residual = 0, No Iterations 0
time step continuity errors : sum local = 0, global = 0, cumulative = 0
DILUPBiCGStab:  Solving for omega, Initial residual = 1.06832e-05, Final residual = 5.58404e-08, No Iterations 1
DILUPBiCGStab:  Solving for k, Initial residual = 0.00808305, Final residual = 2.00059e-05, No Iterations 1
ExecutionTime = 7.27763 s  ClockTime = 8 s

Courant Number mean: 0 max: 0
Time = 24s

DICPCG:  Solving for w, Initial residual = 0.00410104, Final residual = 5.04489e-13, No Iterations 1
Global Volume-Averaged Solid Fraction (Gs) = 0.0200005
DICPCG:  Solving for T, Initial residual = 0.0142702, Final residual = 4.66877e-05, No Iterations 1
GAMG:  Solving for p_rgh, Initial residual = 0, Final residual = 0, No Iterations 0
time step continuity errors : sum local = 0, global = 0, cumulative = 0
DILUPBiCGStab:  Solving for omega, Initial residual = 1.01587e-05, Final residual = 5.45753e-08, No Iterations 1
DILUPBiCGStab:  Solving for k, Initial residual = 0.00810899, Final residual = 1.9994e-05, No Iterations 1
ExecutionTime = 7.34188 s  ClockTime = 8 s

Courant Number mean: 0 max: 0
Time = 24.25s

DICPCG:  Solving for w, Initial residual = 0.00426181, Final residual = 5.25454e-13, No Iterations 1
Global Volume-Averaged Solid Fraction (Gs) = 0.0202398
DICPCG:  Solving for T, Initial residual = 0.0101085, Final residual = 2.9957e-05, No Iterations 1
GAMG:  Solving for p_rgh, Initial residual = 0, Final residual = 0, No Iterations 0
time step continuity errors : sum local = 0, global = 0, cumulative = 0
DILUPBiCGStab:  Solving for omega, Initial residual = 9.64903e-06, Final residual = 5.32123e-08, No Iterations 1
DILUPBiCGStab:  Solving for k, Initial residual = 0.00813388, Final residual = 1.9981e-05, No Iterations 1
ExecutionTime = 7.40486 s  ClockTime = 8 s

Courant Number mean: 0 max: 0
Time = 24.5s

DICPCG:  Solving for w, Initial residual = 0.00427785, Final residual = 5.24617e-13, No Iterations 1
Global Volume-Averaged Solid Fraction (Gs) = 0.0206388
DICPCG:  Solving for T, Initial residual = 0.00551756, Final residual = 1.9546e-05, No Iterations 1
GAMG:  Solving for p_rgh, Initial residual = 0, Final residual = 0, No Iterations 0
time step continuity errors : sum local = 0, global = 0, cumulative = 0
DILUPBiCGStab:  Solving for omega, Initial residual = 9.15589e-06, Final residual = 5.17258e-08, No Iterations 1
DILUPBiCGStab:  Solving for k, Initial residual = 0.0081577, Final residual = 1.99671e-05, No Iterations 1
ExecutionTime = 7.46775 s  ClockTime = 8 s

Courant Number mean: 0 max: 0
Time = 24.75s

DICPCG:  Solving for w, Initial residual = 0.00379818, Final residual = 4.63695e-13, No Iterations 1
Global Volume-Averaged Solid Fraction (Gs) = 0.0207074
DICPCG:  Solving for T, Initial residual = 0.00386128, Final residual = 1.82973e-05, No Iterations 1
GAMG:  Solving for p_rgh, Initial residual = 0, Final residual = 0, No Iterations 0
time step continuity errors : sum local = 0, global = 0, cumulative = 0
DILUPBiCGStab:  Solving for omega, Initial residual = 8.67881e-06, Final residual = 5.01322e-08, No Iterations 1
DILUPBiCGStab:  Solving for k, Initial residual = 0.00818048, Final residual = 1.99524e-05, No Iterations 1
ExecutionTime = 7.53453 s  ClockTime = 8 s

Courant Number mean: 0 max: 0
Time = 25s

DICPCG:  Solving for w, Initial residual = 0.00411493, Final residual = 5.03464e-13, No Iterations 1
Global Volume-Averaged Solid Fraction (Gs) = 0.0205122
DICPCG:  Solving for T, Initial residual = 0.00312917, Final residual = 1.62809e-05, No Iterations 1
GAMG:  Solving for p_rgh, Initial residual = 0, Final residual = 0, No Iterations 0
time step continuity errors : sum local = 0, global = 0, cumulative = 0
DILUPBiCGStab:  Solving for omega, Initial residual = 8.21696e-06, Final residual = 4.84107e-08, No Iterations 1
DILUPBiCGStab:  Solving for k, Initial residual = 0.00820224, Final residual = 1.99366e-05, No Iterations 1
ExecutionTime = 7.69178 s  ClockTime = 8 s

Courant Number mean: 0 max: 0
Time = 25.25s

DICPCG:  Solving for w, Initial residual = 0.00386643, Final residual = 4.73781e-13, No Iterations 1
Global Volume-Averaged Solid Fraction (Gs) = 0.0202367
DICPCG:  Solving for T, Initial residual = 0.00275799, Final residual = 1.42512e-05, No Iterations 1
GAMG:  Solving for p_rgh, Initial residual = 0, Final residual = 0, No Iterations 0
time step continuity errors : sum local = 0, global = 0, cumulative = 0
DILUPBiCGStab:  Solving for omega, Initial residual = 7.79289e-06, Final residual = 4.65548e-08, No Iterations 1
DILUPBiCGStab:  Solving for k, Initial residual = 0.00822298, Final residual = 1.992e-05, No Iterations 1
ExecutionTime = 7.75619 s  ClockTime = 8 s

Courant Number mean: 0 max: 0
Time = 25.5s

DICPCG:  Solving for w, Initial residual = 0.00408455, Final residual = 5.0513e-13, No Iterations 1
Global Volume-Averaged Solid Fraction (Gs) = 0.020028
DICPCG:  Solving for T, Initial residual = 0.0141529, Final residual = 4.62111e-05, No Iterations 1
GAMG:  Solving for p_rgh, Initial residual = 0, Final residual = 0, No Iterations 0
time step continuity errors : sum local = 0, global = 0, cumulative = 0
DILUPBiCGStab:  Solving for omega, Initial residual = 7.38407e-06, Final residual = 4.45822e-08, No Iterations 1
DILUPBiCGStab:  Solving for k, Initial residual = 0.00824272, Final residual = 1.99022e-05, No Iterations 1
ExecutionTime = 7.81962 s  ClockTime = 8 s

Courant Number mean: 0 max: 0
Time = 25.75s

DICPCG:  Solving for w, Initial residual = 0.00395745, Final residual = 4.87073e-13, No Iterations 1
Global Volume-Averaged Solid Fraction (Gs) = 0.0202978
DICPCG:  Solving for T, Initial residual = 0.00996618, Final residual = 2.93543e-05, No Iterations 1
GAMG:  Solving for p_rgh, Initial residual = 0, Final residual = 0, No Iterations 0
time step continuity errors : sum local = 0, global = 0, cumulative = 0
DILUPBiCGStab:  Solving for omega, Initial residual = 6.99447e-06, Final residual = 4.25076e-08, No Iterations 1
DILUPBiCGStab:  Solving for k, Initial residual = 0.00826146, Final residual = 1.98833e-05, No Iterations 1
ExecutionTime = 7.88517 s  ClockTime = 8 s

Courant Number mean: 0 max: 0
Time = 26s

DICPCG:  Solving for w, Initial residual = 0.00367332, Final residual = 4.47214e-13, No Iterations 1
Global Volume-Averaged Solid Fraction (Gs) = 0.0207338
DICPCG:  Solving for T, Initial residual = 0.00541368, Final residual = 1.89203e-05, No Iterations 1
GAMG:  Solving for p_rgh, Initial residual = 0, Final residual = 0, No Iterations 0
time step continuity errors : sum local = 0, global = 0, cumulative = 0
DILUPBiCGStab:  Solving for omega, Initial residual = 6.64038e-06, Final residual = 4.03247e-08, No Iterations 1
DILUPBiCGStab:  Solving for k, Initial residual = 0.00827922, Final residual = 1.98632e-05, No Iterations 1
ExecutionTime = 7.95379 s  ClockTime = 8 s

Courant Number mean: 0 max: 0
Time = 26.25s

DICPCG:  Solving for w, Initial residual = 0.00377206, Final residual = 4.59685e-13, No Iterations 1
Global Volume-Averaged Solid Fraction (Gs) = 0.0208109
DICPCG:  Solving for T, Initial residual = 0.00377164, Final residual = 1.77438e-05, No Iterations 1
GAMG:  Solving for p_rgh, Initial residual = 0, Final residual = 0, No Iterations 0
time step continuity errors : sum local = 0, global = 0, cumulative = 0
DILUPBiCGStab:  Solving for omega, Initial residual = 6.30538e-06, Final residual = 3.80382e-08, No Iterations 1
DILUPBiCGStab:  Solving for k, Initial residual = 0.00829601, Final residual = 1.98421e-05, No Iterations 1
ExecutionTime = 8.01738 s  ClockTime = 8 s

Courant Number mean: 0 max: 0
Time = 26.5s

DICPCG:  Solving for w, Initial residual = 0.00406995, Final residual = 5.00237e-13, No Iterations 1
Global Volume-Averaged Solid Fraction (Gs) = 0.0206248
DICPCG:  Solving for T, Initial residual = 0.00304269, Final residual = 1.58566e-05, No Iterations 1
GAMG:  Solving for p_rgh, Initial residual = 0, Final residual = 0, No Iterations 0
time step continuity errors : sum local = 0, global = 0, cumulative = 0
DILUPBiCGStab:  Solving for omega, Initial residual = 5.98282e-06, Final residual = 3.56777e-08, No Iterations 1
DILUPBiCGStab:  Solving for k, Initial residual = 0.00831185, Final residual = 1.98197e-05, No Iterations 1
ExecutionTime = 8.08206 s  ClockTime = 8 s

Courant Number mean: 0 max: 0
Time = 26.75s

DICPCG:  Solving for w, Initial residual = 0.00374474, Final residual = 4.64004e-13, No Iterations 1
Global Volume-Averaged Solid Fraction (Gs) = 0.0203583
DICPCG:  Solving for T, Initial residual = 0.00267461, Final residual = 1.38943e-05, No Iterations 1
GAMG:  Solving for p_rgh, Initial residual = 0, Final residual = 0, No Iterations 0
time step continuity errors : sum local = 0, global = 0, cumulative = 0
DILUPBiCGStab:  Solving for omega, Initial residual = 5.67818e-06, Final residual = 3.32989e-08, No Iterations 1
DILUPBiCGStab:  Solving for k, Initial residual = 0.00832674, Final residual = 1.97963e-05, No Iterations 1
ExecutionTime = 8.14809 s  ClockTime = 8 s

Courant Number mean: 0 max: 0
Time = 27s

DICPCG:  Solving for w, Initial residual = 0.00375961, Final residual = 4.60901e-13, No Iterations 1
Global Volume-Averaged Solid Fraction (Gs) = 0.0200832
DICPCG:  Solving for T, Initial residual = 0.0024819, Final residual = 1.22908e-05, No Iterations 1
GAMG:  Solving for p_rgh, Initial residual = 0, Final residual = 0, No Iterations 0
time step continuity errors : sum local = 0, global = 0, cumulative = 0
DILUPBiCGStab:  Solving for omega, Initial residual = 5.40938e-06, Final residual = 3.08856e-08, No Iterations 1
DILUPBiCGStab:  Solving for k, Initial residual = 0.0083407, Final residual = 1.97716e-05, No Iterations 1
ExecutionTime = 8.21304 s  ClockTime = 8 s

Courant Number mean: 0 max: 0
Time = 27.25s

DICPCG:  Solving for w, Initial residual = 0.00370532, Final residual = 4.53992e-13, No Iterations 1
Global Volume-Averaged Solid Fraction (Gs) = 0.0200133
DICPCG:  Solving for T, Initial residual = 0.0178434, Final residual = 5.54921e-05, No Iterations 1
GAMG:  Solving for p_rgh, Initial residual = 0, Final residual = 0, No Iterations 0
time step continuity errors : sum local = 0, global = 0, cumulative = 0
[...]
bounding k, min: 1.32413e-16 max: 1.67388e-09 average: 4.89292e-10
ExecutionTime = 60.5602 s  ClockTime = 61 s

Courant Number mean: 0 max: 0
Time = 194s

DICPCG:  Solving for w, Initial residual = 0.000475059, Final residual = 6.07802e-14, No Iterations 1
Global Volume-Averaged Solid Fraction (Gs) = 0.0212954
DICPCG:  Solving for T, Initial residual = 0.000101767, Final residual = 9.71391e-08, No Iterations 1
GAMG:  Solving for p_rgh, Initial residual = 0, Final residual = 0, No Iterations 0
time step continuity errors : sum local = 0, global = 0, cumulative = 0
DILUPBiCGStab:  Solving for omega, Initial residual = 9.87137e-09, Final residual = 9.87137e-09, No Iterations 0
DILUPBiCGStab:  Solving for k, Initial residual = 0.00512223, Final residual = 2.45985e-07, No Iterations 1
bounding k, min: 1.31311e-16 max: 1.64371e-09 average: 4.8041e-10
ExecutionTime = 60.6238 s  ClockTime = 61 s

Courant Number mean: 0 max: 0
Time = 194.25s

DICPCG:  Solving for w, Initial residual = 0.000553286, Final residual = 7.1621e-14, No Iterations 1
Global Volume-Averaged Solid Fraction (Gs) = 0.0212978
DICPCG:  Solving for T, Initial residual = 0.000101488, Final residual = 9.68845e-08, No Iterations 1
GAMG:  Solving for p_rgh, Initial residual = 0, Final residual = 0, No Iterations 0
time step continuity errors : sum local = 0, global = 0, cumulative = 0
DILUPBiCGStab:  Solving for omega, Initial residual = 9.8757e-09, Final residual = 9.8757e-09, No Iterations 0
DILUPBiCGStab:  Solving for k, Initial residual = 0.00512213, Final residual = 2.45854e-07, No Iterations 1
bounding k, min: 1.30231e-16 max: 1.61408e-09 average: 4.71689e-10
ExecutionTime = 60.6936 s  ClockTime = 61 s

Courant Number mean: 0 max: 0
Time = 194.5s

DICPCG:  Solving for w, Initial residual = 0.000516601, Final residual = 6.71586e-14, No Iterations 1
Global Volume-Averaged Solid Fraction (Gs) = 0.0213001
DICPCG:  Solving for T, Initial residual = 0.000101209, Final residual = 9.66303e-08, No Iterations 1
GAMG:  Solving for p_rgh, Initial residual = 0, Final residual = 0, No Iterations 0
time step continuity errors : sum local = 0, global = 0, cumulative = 0
DILUPBiCGStab:  Solving for omega, Initial residual = 9.87995e-09, Final residual = 9.87995e-09, No Iterations 0
DILUPBiCGStab:  Solving for k, Initial residual = 0.00512203, Final residual = 2.45723e-07, No Iterations 1
bounding k, min: 1.29171e-16 max: 1.58499e-09 average: 4.63127e-10
ExecutionTime = 60.759 s  ClockTime = 61 s

Courant Number mean: 0 max: 0
Time = 194.75s

DICPCG:  Solving for w, Initial residual = 0.000447932, Final residual = 5.80444e-14, No Iterations 1
Global Volume-Averaged Solid Fraction (Gs) = 0.0213024
DICPCG:  Solving for T, Initial residual = 0.000100931, Final residual = 9.63768e-08, No Iterations 1
GAMG:  Solving for p_rgh, Initial residual = 0, Final residual = 0, No Iterations 0
time step continuity errors : sum local = 0, global = 0, cumulative = 0
DILUPBiCGStab:  Solving for omega, Initial residual = 9.88413e-09, Final residual = 9.88413e-09, No Iterations 0
DILUPBiCGStab:  Solving for k, Initial residual = 0.00512193, Final residual = 2.45592e-07, No Iterations 1
bounding k, min: 1.28133e-16 max: 1.55642e-09 average: 4.5472e-10
ExecutionTime = 60.8235 s  ClockTime = 61 s

Courant Number mean: 0 max: 0
Time = 195s

DICPCG:  Solving for w, Initial residual = 0.000530177, Final residual = 6.84986e-14, No Iterations 1
Global Volume-Averaged Solid Fraction (Gs) = 0.0213047
DICPCG:  Solving for T, Initial residual = 0.000100654, Final residual = 9.61238e-08, No Iterations 1
GAMG:  Solving for p_rgh, Initial residual = 0, Final residual = 0, No Iterations 0
time step continuity errors : sum local = 0, global = 0, cumulative = 0
DILUPBiCGStab:  Solving for omega, Initial residual = 9.88823e-09, Final residual = 9.88823e-09, No Iterations 0
DILUPBiCGStab:  Solving for k, Initial residual = 0.00512183, Final residual = 2.45461e-07, No Iterations 1
bounding k, min: 1.27115e-16 max: 1.52837e-09 average: 4.46466e-10
ExecutionTime = 60.9847 s  ClockTime = 62 s

Courant Number mean: 0 max: 0
Time = 195.25s

DICPCG:  Solving for w, Initial residual = 0.000461705, Final residual = 5.91807e-14, No Iterations 1
Global Volume-Averaged Solid Fraction (Gs) = 0.021307
DICPCG:  Solving for T, Initial residual = 0.000100378, Final residual = 9.58713e-08, No Iterations 1
GAMG:  Solving for p_rgh, Initial residual = 0, Final residual = 0, No Iterations 0
time step continuity errors : sum local = 0, global = 0, cumulative = 0
DILUPBiCGStab:  Solving for omega, Initial residual = 9.89225e-09, Final residual = 9.89225e-09, No Iterations 0
DILUPBiCGStab:  Solving for k, Initial residual = 0.00512173, Final residual = 2.45331e-07, No Iterations 1
bounding k, min: 1.26117e-16 max: 1.50082e-09 average: 4.38361e-10
ExecutionTime = 61.049 s  ClockTime = 62 s

Courant Number mean: 0 max: 0
Time = 195.5s

DICPCG:  Solving for w, Initial residual = 0.00054744, Final residual = 7.08976e-14, No Iterations 1
Global Volume-Averaged Solid Fraction (Gs) = 0.0213093
DICPCG:  Solving for T, Initial residual = 0.000100102, Final residual = 9.56195e-08, No Iterations 1
GAMG:  Solving for p_rgh, Initial residual = 0, Final residual = 0, No Iterations 0
time step continuity errors : sum local = 0, global = 0, cumulative = 0
DILUPBiCGStab:  Solving for omega, Initial residual = 9.8962e-09, Final residual = 9.8962e-09, No Iterations 0
DILUPBiCGStab:  Solving for k, Initial residual = 0.00512162, Final residual = 2.452e-07, No Iterations 1
bounding k, min: 1.25138e-16 max: 1.47377e-09 average: 4.30404e-10
ExecutionTime = 61.1139 s  ClockTime = 62 s

Courant Number mean: 0 max: 0
Time = 195.75s

DICPCG:  Solving for w, Initial residual = 0.000519912, Final residual = 6.77388e-14, No Iterations 1
Global Volume-Averaged Solid Fraction (Gs) = 0.0213116
DICPCG:  Solving for T, Initial residual = 9.98273e-05, Final residual = 9.53682e-08, No Iterations 1
GAMG:  Solving for p_rgh, Initial residual = 0, Final residual = 0, No Iterations 0
time step continuity errors : sum local = 0, global = 0, cumulative = 0
DILUPBiCGStab:  Solving for omega, Initial residual = 9.90007e-09, Final residual = 9.90007e-09, No Iterations 0
DILUPBiCGStab:  Solving for k, Initial residual = 0.00512152, Final residual = 2.4507e-07, No Iterations 1
bounding k, min: 1.24179e-16 max: 1.4472e-09 average: 4.22591e-10
ExecutionTime = 61.1784 s  ClockTime = 62 s

Courant Number mean: 0 max: 0
Time = 196s

DICPCG:  Solving for w, Initial residual = 0.00045181, Final residual = 5.85301e-14, No Iterations 1
Global Volume-Averaged Solid Fraction (Gs) = 0.0213139
DICPCG:  Solving for T, Initial residual = 9.95534e-05, Final residual = 9.51175e-08, No Iterations 1
GAMG:  Solving for p_rgh, Initial residual = 0, Final residual = 0, No Iterations 0
time step continuity errors : sum local = 0, global = 0, cumulative = 0
DILUPBiCGStab:  Solving for omega, Initial residual = 9.90388e-09, Final residual = 9.90388e-09, No Iterations 0
DILUPBiCGStab:  Solving for k, Initial residual = 0.00512142, Final residual = 2.4494e-07, No Iterations 1
bounding k, min: 1.23238e-16 max: 1.42112e-09 average: 4.1492e-10
ExecutionTime = 61.2434 s  ClockTime = 62 s

Courant Number mean: 0 max: 0
Time = 196.25s

DICPCG:  Solving for w, Initial residual = 0.000460516, Final residual = 5.95107e-14, No Iterations 1
Global Volume-Averaged Solid Fraction (Gs) = 0.0213162
DICPCG:  Solving for T, Initial residual = 9.92802e-05, Final residual = 9.48673e-08, No Iterations 1
GAMG:  Solving for p_rgh, Initial residual = 0, Final residual = 0, No Iterations 0
time step continuity errors : sum local = 0, global = 0, cumulative = 0
DILUPBiCGStab:  Solving for omega, Initial residual = 9.90762e-09, Final residual = 9.90762e-09, No Iterations 0
DILUPBiCGStab:  Solving for k, Initial residual = 0.00512132, Final residual = 2.44811e-07, No Iterations 1
bounding k, min: 1.22316e-16 max: 1.39551e-09 average: 4.07388e-10
ExecutionTime = 61.3069 s  ClockTime = 62 s

Courant Number mean: 0 max: 0
Time = 196.5s

DICPCG:  Solving for w, Initial residual = 0.000509324, Final residual = 6.59195e-14, No Iterations 1
Global Volume-Averaged Solid Fraction (Gs) = 0.0213185
DICPCG:  Solving for T, Initial residual = 9.90078e-05, Final residual = 9.46177e-08, No Iterations 1
GAMG:  Solving for p_rgh, Initial residual = 0, Final residual = 0, No Iterations 0
time step continuity errors : sum local = 0, global = 0, cumulative = 0
DILUPBiCGStab:  Solving for omega, Initial residual = 9.91129e-09, Final residual = 9.91129e-09, No Iterations 0
DILUPBiCGStab:  Solving for k, Initial residual = 0.00512123, Final residual = 2.44682e-07, No Iterations 1
bounding k, min: 1.21412e-16 max: 1.37035e-09 average: 3.99993e-10
ExecutionTime = 61.3727 s  ClockTime = 62 s

Courant Number mean: 0 max: 0
Time = 196.75s

DICPCG:  Solving for w, Initial residual = 0.000477443, Final residual = 6.18578e-14, No Iterations 1
Global Volume-Averaged Solid Fraction (Gs) = 0.0213207
DICPCG:  Solving for T, Initial residual = 9.87362e-05, Final residual = 9.43687e-08, No Iterations 1
GAMG:  Solving for p_rgh, Initial residual = 0, Final residual = 0, No Iterations 0
time step continuity errors : sum local = 0, global = 0, cumulative = 0
DILUPBiCGStab:  Solving for omega, Initial residual = 9.91489e-09, Final residual = 9.91489e-09, No Iterations 0
DILUPBiCGStab:  Solving for k, Initial residual = 0.00512113, Final residual = 2.44554e-07, No Iterations 1
bounding k, min: 1.20525e-16 max: 1.34565e-09 average: 3.92733e-10
ExecutionTime = 61.4375 s  ClockTime = 62 s

Courant Number mean: 0 max: 0
Time = 197s

DICPCG:  Solving for w, Initial residual = 0.000528642, Final residual = 6.85665e-14, No Iterations 1
Global Volume-Averaged Solid Fraction (Gs) = 0.021323
DICPCG:  Solving for T, Initial residual = 9.84654e-05, Final residual = 9.41202e-08, No Iterations 1
GAMG:  Solving for p_rgh, Initial residual = 0, Final residual = 0, No Iterations 0
time step continuity errors : sum local = 0, global = 0, cumulative = 0
DILUPBiCGStab:  Solving for omega, Initial residual = 9.91842e-09, Final residual = 9.91842e-09, No Iterations 0
DILUPBiCGStab:  Solving for k, Initial residual = 0.00512103, Final residual = 2.44426e-07, No Iterations 1
bounding k, min: 1.19656e-16 max: 1.3214e-09 average: 3.85604e-10
ExecutionTime = 61.5025 s  ClockTime = 62 s

Courant Number mean: 0 max: 0
Time = 197.25s

DICPCG:  Solving for w, Initial residual = 0.000474101, Final residual = 6.14397e-14, No Iterations 1
Global Volume-Averaged Solid Fraction (Gs) = 0.0213253
DICPCG:  Solving for T, Initial residual = 9.81953e-05, Final residual = 9.38723e-08, No Iterations 1
GAMG:  Solving for p_rgh, Initial residual = 0, Final residual = 0, No Iterations 0
time step continuity errors : sum local = 0, global = 0, cumulative = 0
DILUPBiCGStab:  Solving for omega, Initial residual = 9.92189e-09, Final residual = 9.92189e-09, No Iterations 0
DILUPBiCGStab:  Solving for k, Initial residual = 0.00512093, Final residual = 2.44298e-07, No Iterations 1
bounding k, min: 1.18804e-16 max: 1.29758e-09 average: 3.78604e-10
ExecutionTime = 61.5686 s  ClockTime = 62 s

Courant Number mean: 0 max: 0
Time = 197.5s

DICPCG:  Solving for w, Initial residual = 0.000451603, Final residual = 5.81933e-14, No Iterations 1
Global Volume-Averaged Solid Fraction (Gs) = 0.0213275
DICPCG:  Solving for T, Initial residual = 9.7926e-05, Final residual = 9.3625e-08, No Iterations 1
GAMG:  Solving for p_rgh, Initial residual = 0, Final residual = 0, No Iterations 0
time step continuity errors : sum local = 0, global = 0, cumulative = 0
DILUPBiCGStab:  Solving for omega, Initial residual = 9.9253e-09, Final residual = 9.9253e-09, No Iterations 0
DILUPBiCGStab:  Solving for k, Initial residual = 0.00512083, Final residual = 2.44171e-07, No Iterations 1
bounding k, min: 1.17969e-16 max: 1.27419e-09 average: 3.71732e-10
ExecutionTime = 61.7323 s  ClockTime = 62 s

Courant Number mean: 0 max: 0
Time = 197.75s

DICPCG:  Solving for w, Initial residual = 0.000509773, Final residual = 6.6012e-14, No Iterations 1
Global Volume-Averaged Solid Fraction (Gs) = 0.0213298
DICPCG:  Solving for T, Initial residual = 9.76575e-05, Final residual = 9.33782e-08, No Iterations 1
GAMG:  Solving for p_rgh, Initial residual = 0, Final residual = 0, No Iterations 0
time step continuity errors : sum local = 0, global = 0, cumulative = 0
DILUPBiCGStab:  Solving for omega, Initial residual = 9.92865e-09, Final residual = 9.92865e-09, No Iterations 0
DILUPBiCGStab:  Solving for k, Initial residual = 0.00512073, Final residual = 2.44046e-07, No Iterations 1
bounding k, min: 1.1715e-16 max: 1.25123e-09 average: 3.64984e-10
ExecutionTime = 61.802 s  ClockTime = 62 s

Courant Number mean: 0 max: 0
Time = 198s

DICPCG:  Solving for w, Initial residual = 0.000481995, Final residual = 6.23861e-14, No Iterations 1
Global Volume-Averaged Solid Fraction (Gs) = 0.021332
DICPCG:  Solving for T, Initial residual = 9.73897e-05, Final residual = 9.3132e-08, No Iterations 1
GAMG:  Solving for p_rgh, Initial residual = 0, Final residual = 0, No Iterations 0
time step continuity errors : sum local = 0, global = 0, cumulative = 0
DILUPBiCGStab:  Solving for omega, Initial residual = 9.93193e-09, Final residual = 9.93193e-09, No Iterations 0
DILUPBiCGStab:  Solving for k, Initial residual = 0.00512063, Final residual = 2.43922e-07, No Iterations 1
bounding k, min: 1.16347e-16 max: 1.22867e-09 average: 3.58359e-10
ExecutionTime = 61.8691 s  ClockTime = 62 s

Courant Number mean: 0 max: 0
Time = 198.25s

DICPCG:  Solving for w, Initial residual = 0.00050308, Final residual = 6.55671e-14, No Iterations 1
Global Volume-Averaged Solid Fraction (Gs) = 0.0213342
DICPCG:  Solving for T, Initial residual = 9.71227e-05, Final residual = 9.28864e-08, No Iterations 1
GAMG:  Solving for p_rgh, Initial residual = 0, Final residual = 0, No Iterations 0
time step continuity errors : sum local = 0, global = 0, cumulative = 0
DILUPBiCGStab:  Solving for omega, Initial residual = 9.93516e-09, Final residual = 9.93516e-09, No Iterations 0
DILUPBiCGStab:  Solving for k, Initial residual = 0.00512053, Final residual = 2.43797e-07, No Iterations 1
bounding k, min: 1.15559e-16 max: 1.20653e-09 average: 3.51855e-10
ExecutionTime = 61.9392 s  ClockTime = 62 s

Courant Number mean: 0 max: 0
Time = 198.5s

DICPCG:  Solving for w, Initial residual = 0.000517842, Final residual = 6.71116e-14, No Iterations 1
Global Volume-Averaged Solid Fraction (Gs) = 0.0213365
DICPCG:  Solving for T, Initial residual = 9.68565e-05, Final residual = 9.26413e-08, No Iterations 1
GAMG:  Solving for p_rgh, Initial residual = 0, Final residual = 0, No Iterations 0
time step continuity errors : sum local = 0, global = 0, cumulative = 0
DILUPBiCGStab:  Solving for omega, Initial residual = 9.93832e-09, Final residual = 9.93832e-09, No Iterations 0
DILUPBiCGStab:  Solving for k, Initial residual = 0.00512044, Final residual = 2.43675e-07, No Iterations 1
bounding k, min: 1.14787e-16 max: 1.18478e-09 average: 3.45468e-10
ExecutionTime = 62.0188 s  ClockTime = 63 s

Courant Number mean: 0 max: 0
Time = 198.75s

DICPCG:  Solving for w, Initial residual = 0.000470862, Final residual = 6.05026e-14, No Iterations 1
Global Volume-Averaged Solid Fraction (Gs) = 0.0213387
DICPCG:  Solving for T, Initial residual = 9.6591e-05, Final residual = 9.23968e-08, No Iterations 1
GAMG:  Solving for p_rgh, Initial residual = 0, Final residual = 0, No Iterations 0
time step continuity errors : sum local = 0, global = 0, cumulative = 0
DILUPBiCGStab:  Solving for omega, Initial residual = 9.94143e-09, Final residual = 9.94143e-09, No Iterations 0
DILUPBiCGStab:  Solving for k, Initial residual = 0.00512034, Final residual = 2.43552e-07, No Iterations 1
bounding k, min: 1.14031e-16 max: 1.16343e-09 average: 3.39197e-10
ExecutionTime = 62.0908 s  ClockTime = 63 s

Courant Number mean: 0 max: 0
Time = 199s

DICPCG:  Solving for w, Initial residual = 0.000480738, Final residual = 6.22641e-14, No Iterations 1
Global Volume-Averaged Solid Fraction (Gs) = 0.0213409
DICPCG:  Solving for T, Initial residual = 9.63263e-05, Final residual = 9.21529e-08, No Iterations 1
GAMG:  Solving for p_rgh, Initial residual = 0, Final residual = 0, No Iterations 0
time step continuity errors : sum local = 0, global = 0, cumulative = 0
DILUPBiCGStab:  Solving for omega, Initial residual = 9.94448e-09, Final residual = 9.94448e-09, No Iterations 0
DILUPBiCGStab:  Solving for k, Initial residual = 0.00512024, Final residual = 2.4343e-07, No Iterations 1
bounding k, min: 1.13289e-16 max: 1.14246e-09 average: 3.3304e-10
ExecutionTime = 62.1713 s  ClockTime = 63 s

Courant Number mean: 0 max: 0
Time = 199.25s

DICPCG:  Solving for w, Initial residual = 0.000503226, Final residual = 6.51646e-14, No Iterations 1
Global Volume-Averaged Solid Fraction (Gs) = 0.0213431
DICPCG:  Solving for T, Initial residual = 9.60624e-05, Final residual = 9.19095e-08, No Iterations 1
GAMG:  Solving for p_rgh, Initial residual = 0, Final residual = 0, No Iterations 0
time step continuity errors : sum local = 0, global = 0, cumulative = 0
DILUPBiCGStab:  Solving for omega, Initial residual = 9.94748e-09, Final residual = 9.94748e-09, No Iterations 0
DILUPBiCGStab:  Solving for k, Initial residual = 0.00512014, Final residual = 2.43307e-07, No Iterations 1
bounding k, min: 1.12561e-16 max: 1.12186e-09 average: 3.26995e-10
ExecutionTime = 62.2604 s  ClockTime = 63 s

Courant Number mean: 0 max: 0
Time = 199.5s

DICPCG:  Solving for w, Initial residual = 0.000461482, Final residual = 6.00288e-14, No Iterations 1
Global Volume-Averaged Solid Fraction (Gs) = 0.0213453
DICPCG:  Solving for T, Initial residual = 9.57992e-05, Final residual = 9.16667e-08, No Iterations 1
GAMG:  Solving for p_rgh, Initial residual = 0, Final residual = 0, No Iterations 0
time step continuity errors : sum local = 0, global = 0, cumulative = 0
DILUPBiCGStab:  Solving for omega, Initial residual = 9.95042e-09, Final residual = 9.95042e-09, No Iterations 0
DILUPBiCGStab:  Solving for k, Initial residual = 0.00512005, Final residual = 2.43185e-07, No Iterations 1
bounding k, min: 1.11848e-16 max: 1.10164e-09 average: 3.2106e-10
ExecutionTime = 62.3296 s  ClockTime = 63 s

Courant Number mean: 0 max: 0
Time = 199.75s

DICPCG:  Solving for w, Initial residual = 0.000497293, Final residual = 6.445e-14, No Iterations 1
Global Volume-Averaged Solid Fraction (Gs) = 0.0213475
DICPCG:  Solving for T, Initial residual = 9.55367e-05, Final residual = 9.14245e-08, No Iterations 1
GAMG:  Solving for p_rgh, Initial residual = 0, Final residual = 0, No Iterations 0
time step continuity errors : sum local = 0, global = 0, cumulative = 0
DILUPBiCGStab:  Solving for omega, Initial residual = 9.95331e-09, Final residual = 9.95331e-09, No Iterations 0
DILUPBiCGStab:  Solving for k, Initial residual = 0.00511995, Final residual = 2.43063e-07, No Iterations 1
bounding k, min: 1.11149e-16 max: 1.08179e-09 average: 3.15232e-10
ExecutionTime = 62.4017 s  ClockTime = 63 s

Courant Number mean: 0 max: 0
Time = 200s

DICPCG:  Solving for w, Initial residual = 0.000492599, Final residual = 6.34801e-14, No Iterations 1
Global Volume-Averaged Solid Fraction (Gs) = 0.0213497
DICPCG:  Solving for T, Initial residual = 9.5275e-05, Final residual = 9.11828e-08, No Iterations 1
GAMG:  Solving for p_rgh, Initial residual = 0, Final residual = 0, No Iterations 0
time step continuity errors : sum local = 0, global = 0, cumulative = 0
DILUPBiCGStab:  Solving for omega, Initial residual = 9.95614e-09, Final residual = 9.95614e-09, No Iterations 0
DILUPBiCGStab:  Solving for k, Initial residual = 0.00511985, Final residual = 2.42941e-07, No Iterations 1
bounding k, min: 1.10463e-16 max: 1.06229e-09 average: 3.0951e-10
ExecutionTime = 62.574 s  ClockTime = 63 s

End

