/*---------------------------------------------------------------------------*\
  =========                 |
  \\      /  F ield         | OpenFOAM: The Open Source CFD Toolbox
   \\    /   O peration     | Website:  https://openfoam.org
    \\  /    A nd           | Version:  13
     \\/     M anipulation  |
\*---------------------------------------------------------------------------*/
Build  : 13-cde978a97c93
Exec   : teseLB_diffusive
Date   : Jan 16 2026
Time   : 10:00:49
Host   : "leonardomaximinobernardo"
PID    : 10318
I/O    : uncollated
Case   : /home/leonardomaximinobernardo/My_projects/teseLB_quantico/teseLB/validationCase_diffusive
nProcs : 1
sigFpe : Enabling floating point exception trapping (FOAM_SIGFPE).
fileModificationChecking : Monitoring run-time modified files using timeStampMaster (fileModificationSkew 10)
allowSystemOperations : Allowing user-supplied system call operations

// * * * * * * * * * * * * * * * * * * * * * * * * * * * * * * * * * * * * * //
Create time

Create mesh for time = 0


PIMPLE: Convergence criteria found
        p_rgh: tolerance 0.0001
        U: tolerance 0.0001
        h: tolerance 0.0001
        "(k|epsilon|omega)": tolerance 0.001


PIMPLE: Operating solver in steady-state mode with 1 outer corrector
PIMPLE: Operating solver in SIMPLE mode


Reading thermophysical properties

Reading field p_rgh

Reading field U

Reading/calculating face flux field phi

Reading field T

Reading field w

Creating viscosity model

Creating turbulence model

Selecting turbulence model type RAS
    Selecting RAS turbulence model kOmegaSST
Reading field alphat

Reading field difft


Reading g
No MRF models present

Courant Number mean: 0 max: 0
Selecting patchDistMethod meshWave

 Starting time loop

Courant Number mean: 0 max: 0
Time = 0.1s


[Quantum Interface] Intercepting Solute Solver Call (w)...
[Quantum Interface] Exporting Matrix (Size: 78750)...
[Quantum Interface] Invoking Backend: "python3 ../solute_solver.py A_matrix_w.dat b_vector_w.dat solution_w.dat"
Reading matrix from A_matrix_w.dat...
Matrix shape: (78750, 78750), Non-zeros: 535200
Initializing Quantum Solver (VQLS)...
Running in Classical DIRECT Mode (LU / Spsolve)
Solution calculated. Norm: 1403.1228519976364
Solution written to solution_w.dat
[Quantum Interface] Importing Solution (w)...
DICPCG:  Solving for T, Initial residual = 1, Final residual = 0.000469804, No Iterations 1
Global Volume-Averaged Solid Fraction (Gs) = 0.026433
DEBUG:  meanT=495.034 meanW=5 meanDTu=0.300291 A=0
GAMG:  Solving for p_rgh, Initial residual = 0, Final residual = 0, No Iterations 0
time step continuity errors : sum local = 0, global = 0, cumulative = 0
DILUPBiCGStab:  Solving for omega, Initial residual = 0.138111, Final residual = 0.00106755, No Iterations 1
DILUPBiCGStab:  Solving for k, Initial residual = 1, Final residual = 0.0169348, No Iterations 1
ExecutionTime = 0.807147 s  ClockTime = 18 s

Courant Number mean: 0 max: 0
Time = 0.2s


[Quantum Interface] Intercepting Solute Solver Call (w)...
[Quantum Interface] Exporting Matrix (Size: 78750)...
[Quantum Interface] Invoking Backend: "python3 ../solute_solver.py A_matrix_w.dat b_vector_w.dat solution_w.dat"
Reading matrix from A_matrix_w.dat...
Matrix shape: (78750, 78750), Non-zeros: 535200
Initializing Quantum Solver (VQLS)...
Running in Classical DIRECT Mode (LU / Spsolve)
Solution calculated. Norm: 1892.2325698654868
Solution written to solution_w.dat
[Quantum Interface] Importing Solution (w)...
DICPCG:  Solving for T, Initial residual = 0.266731, Final residual = 0.000147908, No Iterations 1
Global Volume-Averaged Solid Fraction (Gs) = 0
DEBUG:  meanT=495.063 meanW=6.47131 meanDTu=-1.99027 A=0
GAMG:  Solving for p_rgh, Initial residual = 1, Final residual = 0.000487683, No Iterations 1
time step continuity errors : sum local = 0.00400178, global = -6.30209e-19, cumulative = -6.30209e-19
DILUPBiCGStab:  Solving for omega, Initial residual = 0.0201238, Final residual = 5.93426e-05, No Iterations 1
DILUPBiCGStab:  Solving for k, Initial residual = 0.534798, Final residual = 0.000799299, No Iterations 1
ExecutionTime = 1.36505 s  ClockTime = 35 s

Courant Number mean: 0.0343147 max: 0.484212
Time = 0.3s


[Quantum Interface] Intercepting Solute Solver Call (w)...
[Quantum Interface] Exporting Matrix (Size: 78750)...
[Quantum Interface] Invoking Backend: "python3 ../solute_solver.py A_matrix_w.dat b_vector_w.dat solution_w.dat"
Reading matrix from A_matrix_w.dat...
Matrix shape: (78750, 78750), Non-zeros: 535200
Initializing Quantum Solver (VQLS)...
Running in Classical DIRECT Mode (LU / Spsolve)
Solution calculated. Norm: 1396.4135894317749
Solution written to solution_w.dat
[Quantum Interface] Importing Solution (w)...
DICPCG:  Solving for T, Initial residual = 0.142544, Final residual = 8.7339e-05, No Iterations 1
Global Volume-Averaged Solid Fraction (Gs) = 0.0474271
DEBUG:  meanT=495.088 meanW=4.70381 meanDTu=0.701599 A=0
GAMG:  Solving for p_rgh, Initial residual = 0.422733, Final residual = 0.000369005, No Iterations 1
time step continuity errors : sum local = 0.00733011, global = -6.13004e-19, cumulative = -1.24321e-18
DILUPBiCGStab:  Solving for omega, Initial residual = 0.0273455, Final residual = 2.14942e-05, No Iterations 1
DILUPBiCGStab:  Solving for k, Initial residual = 0.246408, Final residual = 0.000573155, No Iterations 1
ExecutionTime = 1.90656 s  ClockTime = 52 s

Courant Number mean: 0.0818267 max: 1.24393
Time = 0.4s


[Quantum Interface] Intercepting Solute Solver Call (w)...
[Quantum Interface] Exporting Matrix (Size: 78750)...
[Quantum Interface] Invoking Backend: "python3 ../solute_solver.py A_matrix_w.dat b_vector_w.dat solution_w.dat"
Reading matrix from A_matrix_w.dat...
Matrix shape: (78750, 78750), Non-zeros: 535200
Initializing Quantum Solver (VQLS)...
Running in Classical DIRECT Mode (LU / Spsolve)
Solution calculated. Norm: 1847.0182479793439
Solution written to solution_w.dat
[Quantum Interface] Importing Solution (w)...
DICPCG:  Solving for T, Initial residual = 0.0925298, Final residual = 5.93341e-05, No Iterations 1
Global Volume-Averaged Solid Fraction (Gs) = 0.00482336
DEBUG:  meanT=495.11 meanW=6.35579 meanDTu=-1.86005 A=0
GAMG:  Solving for p_rgh, Initial residual = 0.200263, Final residual = 0.00035051, No Iterations 1
time step continuity errors : sum local = 0.00955409, global = 5.06822e-18, cumulative = 3.82501e-18
DILUPBiCGStab:  Solving for omega, Initial residual = 0.0107007, Final residual = 1.79558e-05, No Iterations 1
DILUPBiCGStab:  Solving for k, Initial residual = 0.073369, Final residual = 0.000296589, No Iterations 1
ExecutionTime = 2.44309 s  ClockTime = 69 s

Courant Number mean: 0.13192 max: 1.92513
Time = 0.5s


[Quantum Interface] Intercepting Solute Solver Call (w)...
[Quantum Interface] Exporting Matrix (Size: 78750)...
[Quantum Interface] Invoking Backend: "python3 ../solute_solver.py A_matrix_w.dat b_vector_w.dat solution_w.dat"
Reading matrix from A_matrix_w.dat...
Matrix shape: (78750, 78750), Non-zeros: 535200
Initializing Quantum Solver (VQLS)...
Running in Classical DIRECT Mode (LU / Spsolve)
Solution calculated. Norm: 1369.5906224076216
Solution written to solution_w.dat
[Quantum Interface] Importing Solution (w)...
DICPCG:  Solving for T, Initial residual = 0.0664245, Final residual = 4.26066e-05, No Iterations 1
Global Volume-Averaged Solid Fraction (Gs) = 0.10272
DEBUG:  meanT=495.13 meanW=4.32402 meanDTu=1.24328 A=0
GAMG:  Solving for p_rgh, Initial residual = 0.088849, Final residual = 0.000358486, No Iterations 1
time step continuity errors : sum local = 0.0107273, global = -1.9624e-18, cumulative = 1.86261e-18
DILUPBiCGStab:  Solving for omega, Initial residual = 0.0104444, Final residual = 3.14593e-05, No Iterations 1
DILUPBiCGStab:  Solving for k, Initial residual = 0.0632801, Final residual = 0.00029206, No Iterations 1
ExecutionTime = 2.97483 s  ClockTime = 86 s

Courant Number mean: 0.171378 max: 2.35346
Time = 0.6s


[Quantum Interface] Intercepting Solute Solver Call (w)...
[Quantum Interface] Exporting Matrix (Size: 78750)...
[Quantum Interface] Invoking Backend: "python3 ../solute_solver.py A_matrix_w.dat b_vector_w.dat solution_w.dat"
Reading matrix from A_matrix_w.dat...
Matrix shape: (78750, 78750), Non-zeros: 535200
Initializing Quantum Solver (VQLS)...
Running in Classical DIRECT Mode (LU / Spsolve)
Solution calculated. Norm: 2162.4188887219534
Solution written to solution_w.dat
[Quantum Interface] Importing Solution (w)...
DICPCG:  Solving for T, Initial residual = 0.0507888, Final residual = 3.14056e-05, No Iterations 1
Global Volume-Averaged Solid Fraction (Gs) = 0.011324
DEBUG:  meanT=495.148 meanW=6.86066 meanDTu=-2.6741 A=0
GAMG:  Solving for p_rgh, Initial residual = 0.0413035, Final residual = 0.00037253, No Iterations 1
time step continuity errors : sum local = 0.0110992, global = -6.32176e-19, cumulative = 1.23043e-18
DILUPBiCGStab:  Solving for omega, Initial residual = 0.00566217, Final residual = 3.58332e-05, No Iterations 1
DILUPBiCGStab:  Solving for k, Initial residual = 0.114747, Final residual = 0.000844391, No Iterations 1
ExecutionTime = 3.50701 s  ClockTime = 102 s

Courant Number mean: 0.192721 max: 2.49097
Time = 0.7s


[Quantum Interface] Intercepting Solute Solver Call (w)...
[Quantum Interface] Exporting Matrix (Size: 78750)...
[Quantum Interface] Invoking Backend: "python3 ../solute_solver.py A_matrix_w.dat b_vector_w.dat solution_w.dat"
Reading matrix from A_matrix_w.dat...
Matrix shape: (78750, 78750), Non-zeros: 535200
Initializing Quantum Solver (VQLS)...
Running in Classical DIRECT Mode (LU / Spsolve)
Solution calculated. Norm: 2605.6552700264265
Solution written to solution_w.dat
[Quantum Interface] Importing Solution (w)...
DICPCG:  Solving for T, Initial residual = 0.040607, Final residual = 2.35199e-05, No Iterations 1
Global Volume-Averaged Solid Fraction (Gs) = 0.0726702
DEBUG:  meanT=495.164 meanW=-0.396024 meanDTu=8.46433 A=0
GAMG:  Solving for p_rgh, Initial residual = 0.0294791, Final residual = 0.000168301, No Iterations 2
time step continuity errors : sum local = 0.00500165, global = -4.77573e-18, cumulative = -3.5453e-18
DILUPBiCGStab:  Solving for omega, Initial residual = 0.00210826, Final residual = 2.37e-05, No Iterations 1
DILUPBiCGStab:  Solving for k, Initial residual = 0.0741211, Final residual = 0.000805241, No Iterations 1
ExecutionTime = 4.03671 s  ClockTime = 119 s

Courant Number mean: 0.106396 max: 1.73074
Time = 0.8s


[Quantum Interface] Intercepting Solute Solver Call (w)...
[Quantum Interface] Exporting Matrix (Size: 78750)...
[Quantum Interface] Invoking Backend: "python3 ../solute_solver.py A_matrix_w.dat b_vector_w.dat solution_w.dat"
Reading matrix from A_matrix_w.dat...
Matrix shape: (78750, 78750), Non-zeros: 535200
Initializing Quantum Solver (VQLS)...
Running in Classical DIRECT Mode (LU / Spsolve)
Solution calculated. Norm: 2738.4338402504836
Solution written to solution_w.dat
[Quantum Interface] Importing Solution (w)...
DICPCG:  Solving for T, Initial residual = 0.033576, Final residual = 1.8089e-05, No Iterations 1
Global Volume-Averaged Solid Fraction (Gs) = 0.0248899
DEBUG:  meanT=495.18 meanW=0.526687 meanDTu=7.03064 A=0
GAMG:  Solving for p_rgh, Initial residual = 0.0342168, Final residual = 0.000168816, No Iterations 1
time step continuity errors : sum local = 0.00508591, global = -4.26842e-18, cumulative = -7.81371e-18
DILUPBiCGStab:  Solving for omega, Initial residual = 0.000801027, Final residual = 1.15807e-05, No Iterations 1
DILUPBiCGStab:  Solving for k, Initial residual = 0.0205413, Final residual = 0.000259882, No Iterations 1
ExecutionTime = 4.5613 s  ClockTime = 136 s

Courant Number mean: 0.106349 max: 1.5236
Time = 0.9s


[Quantum Interface] Intercepting Solute Solver Call (w)...
[Quantum Interface] Exporting Matrix (Size: 78750)...
[Quantum Interface] Invoking Backend: "python3 ../solute_solver.py A_matrix_w.dat b_vector_w.dat solution_w.dat"
Reading matrix from A_matrix_w.dat...
Matrix shape: (78750, 78750), Non-zeros: 535200
Initializing Quantum Solver (VQLS)...
Running in Classical DIRECT Mode (LU / Spsolve)
Solution calculated. Norm: 4058.692989397503
Solution written to solution_w.dat
[Quantum Interface] Importing Solution (w)...
DICPCG:  Solving for T, Initial residual = 0.0284855, Final residual = 1.43982e-05, No Iterations 1
Global Volume-Averaged Solid Fraction (Gs) = 0.0520672
DEBUG:  meanT=495.194 meanW=-3.09591 meanDTu=12.585 A=0
GAMG:  Solving for p_rgh, Initial residual = 0.0364794, Final residual = 0.000144903, No Iterations 1
time step continuity errors : sum local = 0.00434174, global = 4.80768e-19, cumulative = -7.33294e-18
DILUPBiCGStab:  Solving for omega, Initial residual = 0.000705499, Final residual = 8.73602e-06, No Iterations 1
DILUPBiCGStab:  Solving for k, Initial residual = 0.00920669, Final residual = 0.0001286, No Iterations 1
ExecutionTime = 5.08702 s  ClockTime = 152 s

Courant Number mean: 0.0866428 max: 1.31338
Time = 1s


[Quantum Interface] Intercepting Solute Solver Call (w)...
[Quantum Interface] Exporting Matrix (Size: 78750)...
[Quantum Interface] Invoking Backend: "python3 ../solute_solver.py A_matrix_w.dat b_vector_w.dat solution_w.dat"
Reading matrix from A_matrix_w.dat...
Matrix shape: (78750, 78750), Non-zeros: 535200
Initializing Quantum Solver (VQLS)...
Running in Classical DIRECT Mode (LU / Spsolve)
Solution calculated. Norm: 3929.846913726741
Solution written to solution_w.dat
[Quantum Interface] Importing Solution (w)...
DICPCG:  Solving for T, Initial residual = 0.024659, Final residual = 1.16008e-05, No Iterations 1
Global Volume-Averaged Solid Fraction (Gs) = 0.0244731
DEBUG:  meanT=495.207 meanW=-2.23817 meanDTu=11.2531 A=0
GAMG:  Solving for p_rgh, Initial residual = 0.0369459, Final residual = 0.000147839, No Iterations 1
time step continuity errors : sum local = 0.00434526, global = 2.45005e-18, cumulative = -4.88289e-18
DILUPBiCGStab:  Solving for omega, Initial residual = 0.000470165, Final residual = 6.702e-06, No Iterations 1
DILUPBiCGStab:  Solving for k, Initial residual = 0.00597843, Final residual = 9.19668e-05, No Iterations 1
ExecutionTime = 5.85517 s  ClockTime = 169 s

Courant Number mean: 0.088337 max: 1.22407
Time = 1.1s


[Quantum Interface] Intercepting Solute Solver Call (w)...
[Quantum Interface] Exporting Matrix (Size: 78750)...
[Quantum Interface] Invoking Backend: "python3 ../solute_solver.py A_matrix_w.dat b_vector_w.dat solution_w.dat"
Reading matrix from A_matrix_w.dat...
Matrix shape: (78750, 78750), Non-zeros: 535200
Initializing Quantum Solver (VQLS)...
Running in Classical DIRECT Mode (LU / Spsolve)
Solution calculated. Norm: 4279.902538084247
Solution written to solution_w.dat
[Quantum Interface] Importing Solution (w)...
DICPCG:  Solving for T, Initial residual = 0.021713, Final residual = 9.64263e-06, No Iterations 1
Global Volume-Averaged Solid Fraction (Gs) = 0.0553936
DEBUG:  meanT=495.22 meanW=-4.10138 meanDTu=14.1046 A=0
GAMG:  Solving for p_rgh, Initial residual = 0.0372404, Final residual = 0.000155119, No Iterations 1
time step continuity errors : sum local = 0.00440234, global = -4.66906e-18, cumulative = -9.55195e-18
DILUPBiCGStab:  Solving for omega, Initial residual = 0.000396451, Final residual = 6.90958e-06, No Iterations 1
DILUPBiCGStab:  Solving for k, Initial residual = 0.00505208, Final residual = 8.00649e-05, No Iterations 1
ExecutionTime = 6.38671 s  ClockTime = 186 s

Courant Number mean: 0.0971995 max: 1.17519
Time = 1.2s


[Quantum Interface] Intercepting Solute Solver Call (w)...
[Quantum Interface] Exporting Matrix (Size: 78750)...
[Quantum Interface] Invoking Backend: "python3 ../solute_solver.py A_matrix_w.dat b_vector_w.dat solution_w.dat"
Reading matrix from A_matrix_w.dat...
Matrix shape: (78750, 78750), Non-zeros: 535200
Initializing Quantum Solver (VQLS)...
Running in Classical DIRECT Mode (LU / Spsolve)
Solution calculated. Norm: 4170.974555102928
Solution written to solution_w.dat
[Quantum Interface] Importing Solution (w)...
DICPCG:  Solving for T, Initial residual = 0.0193903, Final residual = 8.11848e-06, No Iterations 1
Global Volume-Averaged Solid Fraction (Gs) = 0.0288749
DEBUG:  meanT=495.232 meanW=-3.58205 meanDTu=13.2944 A=0
GAMG:  Solving for p_rgh, Initial residual = 0.0367771, Final residual = 0.000158662, No Iterations 1
time step continuity errors : sum local = 0.00429959, global = 3.55415e-19, cumulative = -9.19654e-18
DILUPBiCGStab:  Solving for omega, Initial residual = 0.000452987, Final residual = 7.65924e-06, No Iterations 1
DILUPBiCGStab:  Solving for k, Initial residual = 0.00469307, Final residual = 7.41396e-05, No Iterations 1
ExecutionTime = 6.92255 s  ClockTime = 202 s

Courant Number mean: 0.104529 max: 1.26278
Time = 1.3s


[Quantum Interface] Intercepting Solute Solver Call (w)...
[Quantum Interface] Exporting Matrix (Size: 78750)...
[Quantum Interface] Invoking Backend: "python3 ../solute_solver.py A_matrix_w.dat b_vector_w.dat solution_w.dat"
Reading matrix from A_matrix_w.dat...
Matrix shape: (78750, 78750), Non-zeros: 535200
Initializing Quantum Solver (VQLS)...
Running in Classical DIRECT Mode (LU / Spsolve)
Solution calculated. Norm: 4392.472414045038
Solution written to solution_w.dat
[Quantum Interface] Importing Solution (w)...
DICPCG:  Solving for T, Initial residual = 0.0175203, Final residual = 6.85696e-06, No Iterations 1
Global Volume-Averaged Solid Fraction (Gs) = 0.0509418
DEBUG:  meanT=495.243 meanW=-5.20759 meanDTu=15.7817 A=0
GAMG:  Solving for p_rgh, Initial residual = 0.0354639, Final residual = 0.000160092, No Iterations 1
time step continuity errors : sum local = 0.0041429, global = -6.2431e-20, cumulative = -9.25897e-18
DILUPBiCGStab:  Solving for omega, Initial residual = 0.000447541, Final residual = 7.60092e-06, No Iterations 1
DILUPBiCGStab:  Solving for k, Initial residual = 0.00442787, Final residual = 6.5719e-05, No Iterations 1
ExecutionTime = 7.44685 s  ClockTime = 219 s

Courant Number mean: 0.113019 max: 1.45199
Time = 1.4s


[Quantum Interface] Intercepting Solute Solver Call (w)...
[Quantum Interface] Exporting Matrix (Size: 78750)...
[Quantum Interface] Invoking Backend: "python3 ../solute_solver.py A_matrix_w.dat b_vector_w.dat solution_w.dat"
Reading matrix from A_matrix_w.dat...
Matrix shape: (78750, 78750), Non-zeros: 535200
Initializing Quantum Solver (VQLS)...
Running in Classical DIRECT Mode (LU / Spsolve)
Solution calculated. Norm: 4263.254112933238
Solution written to solution_w.dat
[Quantum Interface] Importing Solution (w)...
DICPCG:  Solving for T, Initial residual = 0.0159786, Final residual = 5.81685e-06, No Iterations 1
Global Volume-Averaged Solid Fraction (Gs) = 0.0311687
DEBUG:  meanT=495.254 meanW=-4.79443 meanDTu=15.1357 A=0
GAMG:  Solving for p_rgh, Initial residual = 0.0338289, Final residual = 0.000165788, No Iterations 1
time step continuity errors : sum local = 0.00407824, global = -6.58598e-19, cumulative = -9.91756e-18
DILUPBiCGStab:  Solving for omega, Initial residual = 0.000416174, Final residual = 7.21722e-06, No Iterations 1
DILUPBiCGStab:  Solving for k, Initial residual = 0.00419488, Final residual = 5.9151e-05, No Iterations 1
ExecutionTime = 7.97244 s  ClockTime = 236 s

Courant Number mean: 0.124567 max: 1.63224
Time = 1.5s


[Quantum Interface] Intercepting Solute Solver Call (w)...
[Quantum Interface] Exporting Matrix (Size: 78750)...
[Quantum Interface] Invoking Backend: "python3 ../solute_solver.py A_matrix_w.dat b_vector_w.dat solution_w.dat"
Reading matrix from A_matrix_w.dat...
Matrix shape: (78750, 78750), Non-zeros: 535200
Initializing Quantum Solver (VQLS)...
Running in Classical DIRECT Mode (LU / Spsolve)
Solution calculated. Norm: 4327.849471426556
Solution written to solution_w.dat
[Quantum Interface] Importing Solution (w)...
DICPCG:  Solving for T, Initial residual = 0.0146876, Final residual = 4.97891e-06, No Iterations 1
Global Volume-Averaged Solid Fraction (Gs) = 0.0468507
DEBUG:  meanT=495.265 meanW=-5.80945 meanDTu=16.6855 A=0
GAMG:  Solving for p_rgh, Initial residual = 0.0319149, Final residual = 0.000184788, No Iterations 1
time step continuity errors : sum local = 0.00434511, global = -2.33662e-18, cumulative = -1.22542e-17
DILUPBiCGStab:  Solving for omega, Initial residual = 0.000389618, Final residual = 6.90275e-06, No Iterations 1
DILUPBiCGStab:  Solving for k, Initial residual = 0.00402558, Final residual = 5.30838e-05, No Iterations 1
ExecutionTime = 8.49413 s  ClockTime = 253 s

Courant Number mean: 0.143207 max: 1.78556
Time = 1.6s


[Quantum Interface] Intercepting Solute Solver Call (w)...
[Quantum Interface] Exporting Matrix (Size: 78750)...
[Quantum Interface] Invoking Backend: "python3 ../solute_solver.py A_matrix_w.dat b_vector_w.dat solution_w.dat"
Reading matrix from A_matrix_w.dat...
Matrix shape: (78750, 78750), Non-zeros: 535200
Initializing Quantum Solver (VQLS)...
Running in Classical DIRECT Mode (LU / Spsolve)
Solution calculated. Norm: 4214.30134995454
Solution written to solution_w.dat
[Quantum Interface] Importing Solution (w)...
DICPCG:  Solving for T, Initial residual = 0.0135958, Final residual = 4.29939e-06, No Iterations 1
Global Volume-Averaged Solid Fraction (Gs) = 0.0339804
DEBUG:  meanT=495.275 meanW=-5.55239 meanDTu=16.2803 A=0
GAMG:  Solving for p_rgh, Initial residual = 0.0303113, Final residual = 0.000217444, No Iterations 1
time step continuity errors : sum local = 0.00480194, global = -1.7713e-18, cumulative = -1.40255e-17
DILUPBiCGStab:  Solving for omega, Initial residual = 0.000384751, Final residual = 6.88607e-06, No Iterations 1
DILUPBiCGStab:  Solving for k, Initial residual = 0.0040938, Final residual = 5.49411e-05, No Iterations 1
ExecutionTime = 9.01442 s  ClockTime = 269 s

Courant Number mean: 0.164225 max: 1.90323
Time = 1.7s


[Quantum Interface] Intercepting Solute Solver Call (w)...
[Quantum Interface] Exporting Matrix (Size: 78750)...
[Quantum Interface] Invoking Backend: "python3 ../solute_solver.py A_matrix_w.dat b_vector_w.dat solution_w.dat"
Reading matrix from A_matrix_w.dat...
Matrix shape: (78750, 78750), Non-zeros: 535200
Initializing Quantum Solver (VQLS)...
Running in Classical DIRECT Mode (LU / Spsolve)
Solution calculated. Norm: 4149.895046831533
Solution written to solution_w.dat
[Quantum Interface] Importing Solution (w)...
DICPCG:  Solving for T, Initial residual = 0.0126627, Final residual = 3.73493e-06, No Iterations 1
Global Volume-Averaged Solid Fraction (Gs) = 0.0456898
DEBUG:  meanT=495.285 meanW=-5.9376 meanDTu=16.8627 A=0
GAMG:  Solving for p_rgh, Initial residual = 0.0288666, Final residual = 0.00024845, No Iterations 1
time step continuity errors : sum local = 0.00518664, global = 3.6151e-18, cumulative = -1.04104e-17
DILUPBiCGStab:  Solving for omega, Initial residual = 0.000387169, Final residual = 7.13214e-06, No Iterations 1
DILUPBiCGStab:  Solving for k, Initial residual = 0.0042674, Final residual = 6.10048e-05, No Iterations 1
ExecutionTime = 9.53644 s  ClockTime = 286 s

Courant Number mean: 0.180528 max: 2.00362
Time = 1.8s


[Quantum Interface] Intercepting Solute Solver Call (w)...
[Quantum Interface] Exporting Matrix (Size: 78750)...
[Quantum Interface] Invoking Backend: "python3 ../solute_solver.py A_matrix_w.dat b_vector_w.dat solution_w.dat"
Reading matrix from A_matrix_w.dat...
Matrix shape: (78750, 78750), Non-zeros: 535200
Initializing Quantum Solver (VQLS)...
Running in Classical DIRECT Mode (LU / Spsolve)
Solution calculated. Norm: 4062.9900345915307
Solution written to solution_w.dat
[Quantum Interface] Importing Solution (w)...
DICPCG:  Solving for T, Initial residual = 0.0118568, Final residual = 3.26523e-06, No Iterations 1
Global Volume-Averaged Solid Fraction (Gs) = 0.0378096
DEBUG:  meanT=495.294 meanW=-5.78899 meanDTu=16.6249 A=0
GAMG:  Solving for p_rgh, Initial residual = 0.0277605, Final residual = 0.000268329, No Iterations 1
time step continuity errors : sum local = 0.00530871, global = -7.49861e-18, cumulative = -1.7909e-17
DILUPBiCGStab:  Solving for omega, Initial residual = 0.000385477, Final residual = 7.34788e-06, No Iterations 1
DILUPBiCGStab:  Solving for k, Initial residual = 0.00440482, Final residual = 6.51496e-05, No Iterations 1
ExecutionTime = 10.0579 s  ClockTime = 303 s

Courant Number mean: 0.190347 max: 2.04357
Time = 1.9s


[Quantum Interface] Intercepting Solute Solver Call (w)...
[Quantum Interface] Exporting Matrix (Size: 78750)...
[Quantum Interface] Invoking Backend: "python3 ../solute_solver.py A_matrix_w.dat b_vector_w.dat solution_w.dat"
Reading matrix from A_matrix_w.dat...
Matrix shape: (78750, 78750), Non-zeros: 535200
Initializing Quantum Solver (VQLS)...
Running in Classical DIRECT Mode (LU / Spsolve)
Solution calculated. Norm: 3990.3662337598985
Solution written to solution_w.dat
[Quantum Interface] Importing Solution (w)...
DICPCG:  Solving for T, Initial residual = 0.0111542, Final residual = 2.92133e-06, No Iterations 1
Global Volume-Averaged Solid Fraction (Gs) = 0.0459353
DEBUG:  meanT=495.303 meanW=-5.86413 meanDTu=16.7313 A=0
GAMG:  Solving for p_rgh, Initial residual = 0.0267459, Final residual = 0.000113855, No Iterations 2
time step continuity errors : sum local = 0.00216071, global = 9.62274e-19, cumulative = -1.69467e-17
DILUPBiCGStab:  Solving for omega, Initial residual = 0.000466582, Final residual = 1.08641e-05, No Iterations 1
DILUPBiCGStab:  Solving for k, Initial residual = 0.00406474, Final residual = 5.89779e-05, No Iterations 1
ExecutionTime = 10.5916 s  ClockTime = 319 s

Courant Number mean: 0.148009 max: 1.82395
Time = 2s


[Quantum Interface] Intercepting Solute Solver Call (w)...
[Quantum Interface] Exporting Matrix (Size: 78750)...
[Quantum Interface] Invoking Backend: "python3 ../solute_solver.py A_matrix_w.dat b_vector_w.dat solution_w.dat"
Reading matrix from A_matrix_w.dat...
Matrix shape: (78750, 78750), Non-zeros: 535200
Initializing Quantum Solver (VQLS)...
Running in Classical DIRECT Mode (LU / Spsolve)
Solution calculated. Norm: 3945.0408625248538
Solution written to solution_w.dat
[Quantum Interface] Importing Solution (w)...
DICPCG:  Solving for T, Initial residual = 0.0105343, Final residual = 2.63611e-06, No Iterations 1
Global Volume-Averaged Solid Fraction (Gs) = 0.0393312
DEBUG:  meanT=495.312 meanW=-5.72179 meanDTu=16.5036 A=0
GAMG:  Solving for p_rgh, Initial residual = 0.0256321, Final residual = 0.000127503, No Iterations 1
time step continuity errors : sum local = 0.00233075, global = 2.90009e-18, cumulative = -1.40466e-17
DILUPBiCGStab:  Solving for omega, Initial residual = 0.000420421, Final residual = 9.26517e-06, No Iterations 1
DILUPBiCGStab:  Solving for k, Initial residual = 0.00409292, Final residual = 5.89258e-05, No Iterations 1
ExecutionTime = 11.3527 s  ClockTime = 337 s

Courant Number mean: 0.152411 max: 1.87772
Time = 2.1s


[Quantum Interface] Intercepting Solute Solver Call (w)...
[Quantum Interface] Exporting Matrix (Size: 78750)...
[Quantum Interface] Invoking Backend: "python3 ../solute_solver.py A_matrix_w.dat b_vector_w.dat solution_w.dat"
Reading matrix from A_matrix_w.dat...
Matrix shape: (78750, 78750), Non-zeros: 535200
Initializing Quantum Solver (VQLS)...
Running in Classical DIRECT Mode (LU / Spsolve)
Solution calculated. Norm: 3929.5682786181924
Solution written to solution_w.dat
[Quantum Interface] Importing Solution (w)...
DICPCG:  Solving for T, Initial residual = 0.00998158, Final residual = 2.38629e-06, No Iterations 1
Global Volume-Averaged Solid Fraction (Gs) = 0.0466958
DEBUG:  meanT=495.32 meanW=-5.96738 meanDTu=16.8726 A=0
GAMG:  Solving for p_rgh, Initial residual = 0.0247746, Final residual = 0.000119521, No Iterations 1
time step continuity errors : sum local = 0.00208949, global = 2.44661e-18, cumulative = -1.16e-17
DILUPBiCGStab:  Solving for omega, Initial residual = 0.000427899, Final residual = 9.78891e-06, No Iterations 1
DILUPBiCGStab:  Solving for k, Initial residual = 0.00411991, Final residual = 5.82829e-05, No Iterations 1
bounding k, min: -5.24891e-08 max: 0.000462962 average: 0.000270498
ExecutionTime = 11.8829 s  ClockTime = 353 s

Courant Number mean: 0.153672 max: 1.88736
Time = 2.2s


[Quantum Interface] Intercepting Solute Solver Call (w)...
[Quantum Interface] Exporting Matrix (Size: 78750)...
[Quantum Interface] Invoking Backend: "python3 ../solute_solver.py A_matrix_w.dat b_vector_w.dat solution_w.dat"
Reading matrix from A_matrix_w.dat...
Matrix shape: (78750, 78750), Non-zeros: 535200
Initializing Quantum Solver (VQLS)...
Running in Classical DIRECT Mode (LU / Spsolve)
Solution calculated. Norm: 3907.2014920560455
Solution written to solution_w.dat
[Quantum Interface] Importing Solution (w)...
DICPCG:  Solving for T, Initial residual = 0.00948513, Final residual = 2.16824e-06, No Iterations 1
Global Volume-Averaged Solid Fraction (Gs) = 0.040667
DEBUG:  meanT=495.329 meanW=-5.92174 meanDTu=16.794 A=0
GAMG:  Solving for p_rgh, Initial residual = 0.0236993, Final residual = 0.000131287, No Iterations 1
time step continuity errors : sum local = 0.00221196, global = 3.28132e-18, cumulative = -8.31869e-18
DILUPBiCGStab:  Solving for omega, Initial residual = 0.000427352, Final residual = 1.00428e-05, No Iterations 1
DILUPBiCGStab:  Solving for k, Initial residual = 0.00422385, Final residual = 5.94839e-05, No Iterations 1
bounding k, min: -6.7853e-07 max: 0.000470079 average: 0.000270237
ExecutionTime = 12.422 s  ClockTime = 370 s

Courant Number mean: 0.162324 max: 1.95966
Time = 2.3s


[Quantum Interface] Intercepting Solute Solver Call (w)...
[Quantum Interface] Exporting Matrix (Size: 78750)...
[Quantum Interface] Invoking Backend: "python3 ../solute_solver.py A_matrix_w.dat b_vector_w.dat solution_w.dat"
Reading matrix from A_matrix_w.dat...
Matrix shape: (78750, 78750), Non-zeros: 535200
Initializing Quantum Solver (VQLS)...
Running in Classical DIRECT Mode (LU / Spsolve)
Solution calculated. Norm: 3910.7100996952026
Solution written to solution_w.dat
[Quantum Interface] Importing Solution (w)...
DICPCG:  Solving for T, Initial residual = 0.00903933, Final residual = 1.97767e-06, No Iterations 1
Global Volume-Averaged Solid Fraction (Gs) = 0.0477181
DEBUG:  meanT=495.337 meanW=-6.21692 meanDTu=17.2396 A=0
GAMG:  Solving for p_rgh, Initial residual = 0.0225765, Final residual = 0.000140749, No Iterations 1
time step continuity errors : sum local = 0.00229214, global = -2.63587e-18, cumulative = -1.09546e-17
DILUPBiCGStab:  Solving for omega, Initial residual = 0.000423256, Final residual = 1.0081e-05, No Iterations 1
DILUPBiCGStab:  Solving for k, Initial residual = 0.00440042, Final residual = 6.2805e-05, No Iterations 1
bounding k, min: -1.01117e-07 max: 0.000477247 average: 0.000270171
ExecutionTime = 12.9516 s  ClockTime = 387 s

Courant Number mean: 0.170173 max: 2.06718
Time = 2.4s


[Quantum Interface] Intercepting Solute Solver Call (w)...
[Quantum Interface] Exporting Matrix (Size: 78750)...
[Quantum Interface] Invoking Backend: "python3 ../solute_solver.py A_matrix_w.dat b_vector_w.dat solution_w.dat"
Reading matrix from A_matrix_w.dat...
Matrix shape: (78750, 78750), Non-zeros: 535200
Initializing Quantum Solver (VQLS)...
Running in Classical DIRECT Mode (LU / Spsolve)
Solution calculated. Norm: 3877.6390983010742
Solution written to solution_w.dat
[Quantum Interface] Importing Solution (w)...
DICPCG:  Solving for T, Initial residual = 0.00863682, Final residual = 1.80893e-06, No Iterations 1
Global Volume-Averaged Solid Fraction (Gs) = 0.0424369
DEBUG:  meanT=495.345 meanW=-6.16015 meanDTu=17.1444 A=0
GAMG:  Solving for p_rgh, Initial residual = 0.0215159, Final residual = 0.000150872, No Iterations 1
time step continuity errors : sum local = 0.00237117, global = 1.47721e-19, cumulative = -1.08068e-17
DILUPBiCGStab:  Solving for omega, Initial residual = 0.000424651, Final residual = 1.02643e-05, No Iterations 1
DILUPBiCGStab:  Solving for k, Initial residual = 0.00463577, Final residual = 6.85724e-05, No Iterations 1
bounding k, min: -1.15353e-07 max: 0.000487909 average: 0.000270285
ExecutionTime = 13.4858 s  ClockTime = 403 s

Courant Number mean: 0.177722 max: 2.17307
Time = 2.5s


[Quantum Interface] Intercepting Solute Solver Call (w)...
[Quantum Interface] Exporting Matrix (Size: 78750)...
[Quantum Interface] Invoking Backend: "python3 ../solute_solver.py A_matrix_w.dat b_vector_w.dat solution_w.dat"
Reading matrix from A_matrix_w.dat...
Matrix shape: (78750, 78750), Non-zeros: 535200
Initializing Quantum Solver (VQLS)...
Running in Classical DIRECT Mode (LU / Spsolve)
Solution calculated. Norm: 3881.490575960361
Solution written to solution_w.dat
[Quantum Interface] Importing Solution (w)...
DICPCG:  Solving for T, Initial residual = 0.0082716, Final residual = 1.65948e-06, No Iterations 1
Global Volume-Averaged Solid Fraction (Gs) = 0.0501067
DEBUG:  meanT=495.353 meanW=-6.41187 meanDTu=17.5235 A=0
GAMG:  Solving for p_rgh, Initial residual = 0.0205869, Final residual = 0.000174332, No Iterations 1
time step continuity errors : sum local = 0.00263812, global = 2.61498e-18, cumulative = -8.19186e-18
DILUPBiCGStab:  Solving for omega, Initial residual = 0.000414893, Final residual = 1.01489e-05, No Iterations 1
DILUPBiCGStab:  Solving for k, Initial residual = 0.00494194, Final residual = 7.53793e-05, No Iterations 1
bounding k, min: -3.1798e-07 max: 0.0005006 average: 0.000270582
ExecutionTime = 14.0082 s  ClockTime = 420 s

Courant Number mean: 0.190403 max: 2.28329
Time = 2.6s


[Quantum Interface] Intercepting Solute Solver Call (w)...
[Quantum Interface] Exporting Matrix (Size: 78750)...
[Quantum Interface] Invoking Backend: "python3 ../solute_solver.py A_matrix_w.dat b_vector_w.dat solution_w.dat"
Reading matrix from A_matrix_w.dat...
Matrix shape: (78750, 78750), Non-zeros: 535200
Initializing Quantum Solver (VQLS)...
Running in Classical DIRECT Mode (LU / Spsolve)
Solution calculated. Norm: 3850.0731954148537
Solution written to solution_w.dat
[Quantum Interface] Importing Solution (w)...
DICPCG:  Solving for T, Initial residual = 0.00793871, Final residual = 1.5287e-06, No Iterations 1
Global Volume-Averaged Solid Fraction (Gs) = 0.0444517
DEBUG:  meanT=495.36 meanW=-6.36535 meanDTu=17.4444 A=0
GAMG:  Solving for p_rgh, Initial residual = 0.0198072, Final residual = 9.46185e-05, No Iterations 2
time step continuity errors : sum local = 0.00137643, global = 3.02692e-19, cumulative = -7.88917e-18
DILUPBiCGStab:  Solving for omega, Initial residual = 0.000430919, Final residual = 1.10893e-05, No Iterations 1
DILUPBiCGStab:  Solving for k, Initial residual = 0.0052429, Final residual = 8.11466e-05, No Iterations 1
ExecutionTime = 14.5434 s  ClockTime = 436 s

Courant Number mean: 0.182712 max: 2.24966
Time = 2.7s


[Quantum Interface] Intercepting Solute Solver Call (w)...
[Quantum Interface] Exporting Matrix (Size: 78750)...
[Quantum Interface] Invoking Backend: "python3 ../solute_solver.py A_matrix_w.dat b_vector_w.dat solution_w.dat"
Reading matrix from A_matrix_w.dat...
Matrix shape: (78750, 78750), Non-zeros: 535200
Initializing Quantum Solver (VQLS)...
Running in Classical DIRECT Mode (LU / Spsolve)
Solution calculated. Norm: 3858.0696674380933
Solution written to solution_w.dat
[Quantum Interface] Importing Solution (w)...
DICPCG:  Solving for T, Initial residual = 0.00763404, Final residual = 1.41196e-06, No Iterations 1
Global Volume-Averaged Solid Fraction (Gs) = 0.0509564
DEBUG:  meanT=495.368 meanW=-6.60804 meanDTu=17.81 A=0
GAMG:  Solving for p_rgh, Initial residual = 0.0190318, Final residual = 0.000141394, No Iterations 1
time step continuity errors : sum local = 0.0019938, global = 1.65528e-18, cumulative = -6.23389e-18
DILUPBiCGStab:  Solving for omega, Initial residual = 0.000431242, Final residual = 1.10178e-05, No Iterations 1
DILUPBiCGStab:  Solving for k, Initial residual = 0.00552281, Final residual = 9.02382e-05, No Iterations 1
ExecutionTime = 15.073 s  ClockTime = 453 s

Courant Number mean: 0.196922 max: 2.3561
Time = 2.8s


[Quantum Interface] Intercepting Solute Solver Call (w)...
[Quantum Interface] Exporting Matrix (Size: 78750)...
[Quantum Interface] Invoking Backend: "python3 ../solute_solver.py A_matrix_w.dat b_vector_w.dat solution_w.dat"
Reading matrix from A_matrix_w.dat...
Matrix shape: (78750, 78750), Non-zeros: 535200
Initializing Quantum Solver (VQLS)...
Running in Classical DIRECT Mode (LU / Spsolve)
Solution calculated. Norm: 3830.8156687502897
Solution written to solution_w.dat
[Quantum Interface] Importing Solution (w)...
DICPCG:  Solving for T, Initial residual = 0.00735328, Final residual = 1.30734e-06, No Iterations 1
Global Volume-Averaged Solid Fraction (Gs) = 0.0462399
DEBUG:  meanT=495.375 meanW=-6.56611 meanDTu=17.7382 A=0
GAMG:  Solving for p_rgh, Initial residual = 0.0185438, Final residual = 0.000156563, No Iterations 1
time step continuity errors : sum local = 0.00212807, global = -3.13138e-19, cumulative = -6.54703e-18
DILUPBiCGStab:  Solving for omega, Initial residual = 0.000413629, Final residual = 1.0725e-05, No Iterations 1
DILUPBiCGStab:  Solving for k, Initial residual = 0.00584235, Final residual = 9.66756e-05, No Iterations 1
ExecutionTime = 15.6094 s  ClockTime = 470 s

Courant Number mean: 0.206522 max: 2.43606
Time = 2.9s


[Quantum Interface] Intercepting Solute Solver Call (w)...
[Quantum Interface] Exporting Matrix (Size: 78750)...
[Quantum Interface] Invoking Backend: "python3 ../solute_solver.py A_matrix_w.dat b_vector_w.dat solution_w.dat"
Reading matrix from A_matrix_w.dat...
Matrix shape: (78750, 78750), Non-zeros: 535200
Initializing Quantum Solver (VQLS)...
Running in Classical DIRECT Mode (LU / Spsolve)
Solution calculated. Norm: 3817.8593994302964
Solution written to solution_w.dat
[Quantum Interface] Importing Solution (w)...
DICPCG:  Solving for T, Initial residual = 0.00709268, Final residual = 1.21344e-06, No Iterations 1
Global Volume-Averaged Solid Fraction (Gs) = 0.0527645
DEBUG:  meanT=495.382 meanW=-6.74448 meanDTu=18.0053 A=0
GAMG:  Solving for p_rgh, Initial residual = 0.0179432, Final residual = 7.75407e-05, No Iterations 2
time step continuity errors : sum local = 0.0010316, global = -7.12181e-19, cumulative = -7.25921e-18
DILUPBiCGStab:  Solving for omega, Initial residual = 0.000437338, Final residual = 1.18647e-05, No Iterations 1
DILUPBiCGStab:  Solving for k, Initial residual = 0.00613707, Final residual = 0.000101216, No Iterations 1
bounding k, min: -2.27568e-07 max: 0.000653791 average: 0.000273529
ExecutionTime = 16.1618 s  ClockTime = 487 s

Courant Number mean: 0.200407 max: 2.44794
Time = 3s


[Quantum Interface] Intercepting Solute Solver Call (w)...
[Quantum Interface] Exporting Matrix (Size: 78750)...
[Quantum Interface] Invoking Backend: "python3 ../solute_solver.py A_matrix_w.dat b_vector_w.dat solution_w.dat"
Reading matrix from A_matrix_w.dat...
Matrix shape: (78750, 78750), Non-zeros: 535200
Initializing Quantum Solver (VQLS)...
Running in Classical DIRECT Mode (LU / Spsolve)
Solution calculated. Norm: 3796.7341316557663
Solution written to solution_w.dat
[Quantum Interface] Importing Solution (w)...
DICPCG:  Solving for T, Initial residual = 0.00684959, Final residual = 1.13002e-06, No Iterations 1
Global Volume-Averaged Solid Fraction (Gs) = 0.0485791
DEBUG:  meanT=495.389 meanW=-6.70886 meanDTu=17.9435 A=0
GAMG:  Solving for p_rgh, Initial residual = 0.0172236, Final residual = 0.000117509, No Iterations 1
time step continuity errors : sum local = 0.00151699, global = -4.57418e-19, cumulative = -7.71662e-18
DILUPBiCGStab:  Solving for omega, Initial residual = 0.000425686, Final residual = 1.14866e-05, No Iterations 1
DILUPBiCGStab:  Solving for k, Initial residual = 0.00642046, Final residual = 0.000109153, No Iterations 1
ExecutionTime = 16.9271 s  ClockTime = 504 s

Courant Number mean: 0.211066 max: 2.55262
Time = 3.1s


[Quantum Interface] Intercepting Solute Solver Call (w)...
[Quantum Interface] Exporting Matrix (Size: 78750)...
[Quantum Interface] Invoking Backend: "python3 ../solute_solver.py A_matrix_w.dat b_vector_w.dat solution_w.dat"
Reading matrix from A_matrix_w.dat...
Matrix shape: (78750, 78750), Non-zeros: 535200
Initializing Quantum Solver (VQLS)...
Running in Classical DIRECT Mode (LU / Spsolve)
Solution calculated. Norm: 3791.8121133358236
Solution written to solution_w.dat
[Quantum Interface] Importing Solution (w)...
DICPCG:  Solving for T, Initial residual = 0.00662399, Final residual = 1.0559e-06, No Iterations 1
Global Volume-Averaged Solid Fraction (Gs) = 0.0532934
DEBUG:  meanT=495.396 meanW=-6.88163 meanDTu=18.2021 A=0
GAMG:  Solving for p_rgh, Initial residual = 0.0166243, Final residual = 0.000133432, No Iterations 1
time step continuity errors : sum local = 0.00168555, global = -7.13287e-19, cumulative = -8.42991e-18
DILUPBiCGStab:  Solving for omega, Initial residual = 0.000413242, Final residual = 1.1183e-05, No Iterations 1
DILUPBiCGStab:  Solving for k, Initial residual = 0.00676213, Final residual = 0.000118786, No Iterations 1
bounding k, min: -2.06141e-07 max: 0.000751089 average: 0.000275996
ExecutionTime = 17.4578 s  ClockTime = 520 s

Courant Number mean: 0.219851 max: 2.63862
Time = 3.2s


[Quantum Interface] Intercepting Solute Solver Call (w)...
[Quantum Interface] Exporting Matrix (Size: 78750)...
[Quantum Interface] Invoking Backend: "python3 ../solute_solver.py A_matrix_w.dat b_vector_w.dat solution_w.dat"
Reading matrix from A_matrix_w.dat...
Matrix shape: (78750, 78750), Non-zeros: 535200
Initializing Quantum Solver (VQLS)...
Running in Classical DIRECT Mode (LU / Spsolve)
Solution calculated. Norm: 3765.50205542085
Solution written to solution_w.dat
[Quantum Interface] Importing Solution (w)...
DICPCG:  Solving for T, Initial residual = 0.00641403, Final residual = 9.95379e-07, No Iterations 1
Global Volume-Averaged Solid Fraction (Gs) = 0.0501073
DEBUG:  meanT=495.403 meanW=-6.85238 meanDTu=18.1504 A=0
GAMG:  Solving for p_rgh, Initial residual = 0.0160646, Final residual = 7.29481e-05, No Iterations 2
time step continuity errors : sum local = 0.000900593, global = 1.74266e-19, cumulative = -8.25565e-18
DILUPBiCGStab:  Solving for omega, Initial residual = 0.000427632, Final residual = 1.20327e-05, No Iterations 1
DILUPBiCGStab:  Solving for k, Initial residual = 0.00715535, Final residual = 0.000127143, No Iterations 1
ExecutionTime = 17.9991 s  ClockTime = 537 s

Courant Number mean: 0.220642 max: 2.65897
Time = 3.3s


[Quantum Interface] Intercepting Solute Solver Call (w)...
[Quantum Interface] Exporting Matrix (Size: 78750)...
[Quantum Interface] Invoking Backend: "python3 ../solute_solver.py A_matrix_w.dat b_vector_w.dat solution_w.dat"
Reading matrix from A_matrix_w.dat...
Matrix shape: (78750, 78750), Non-zeros: 535200
Initializing Quantum Solver (VQLS)...
Running in Classical DIRECT Mode (LU / Spsolve)
Solution calculated. Norm: 3753.889807758767
Solution written to solution_w.dat
[Quantum Interface] Importing Solution (w)...
DICPCG:  Solving for T, Initial residual = 0.00621815, Final residual = 9.39551e-07, No Iterations 1
Global Volume-Averaged Solid Fraction (Gs) = 0.0544824
DEBUG:  meanT=495.41 meanW=-6.98648 meanDTu=18.3498 A=0
GAMG:  Solving for p_rgh, Initial residual = 0.0154292, Final residual = 0.000114032, No Iterations 1
time step continuity errors : sum local = 0.00137307, global = -8.07671e-19, cumulative = -9.06332e-18
DILUPBiCGStab:  Solving for omega, Initial residual = 0.000428983, Final residual = 1.19188e-05, No Iterations 1
DILUPBiCGStab:  Solving for k, Initial residual = 0.00745563, Final residual = 0.000136446, No Iterations 1
ExecutionTime = 18.5324 s  ClockTime = 553 s

Courant Number mean: 0.229692 max: 2.77295
Time = 3.4s


[Quantum Interface] Intercepting Solute Solver Call (w)...
[Quantum Interface] Exporting Matrix (Size: 78750)...
[Quantum Interface] Invoking Backend: "python3 ../solute_solver.py A_matrix_w.dat b_vector_w.dat solution_w.dat"
Reading matrix from A_matrix_w.dat...
Matrix shape: (78750, 78750), Non-zeros: 535200
Initializing Quantum Solver (VQLS)...
Running in Classical DIRECT Mode (LU / Spsolve)
Solution calculated. Norm: 3739.113065387218
Solution written to solution_w.dat
[Quantum Interface] Importing Solution (w)...
DICPCG:  Solving for T, Initial residual = 0.00603495, Final residual = 8.87947e-07, No Iterations 1
Global Volume-Averaged Solid Fraction (Gs) = 0.0517624
DEBUG:  meanT=495.416 meanW=-6.97321 meanDTu=18.3229 A=0
GAMG:  Solving for p_rgh, Initial residual = 0.0149644, Final residual = 0.000138614, No Iterations 1
time step continuity errors : sum local = 0.0016253, global = -2.92799e-20, cumulative = -9.0926e-18
DILUPBiCGStab:  Solving for omega, Initial residual = 0.000419264, Final residual = 1.15908e-05, No Iterations 1
DILUPBiCGStab:  Solving for k, Initial residual = 0.00780895, Final residual = 0.000150231, No Iterations 1
bounding k, min: -1.02859e-06 max: 0.000875343 average: 0.000280785
ExecutionTime = 19.063 s  ClockTime = 570 s

Courant Number mean: 0.240234 max: 2.86228
Time = 3.5s


[Quantum Interface] Intercepting Solute Solver Call (w)...
[Quantum Interface] Exporting Matrix (Size: 78750)...
[Quantum Interface] Invoking Backend: "python3 ../solute_solver.py A_matrix_w.dat b_vector_w.dat solution_w.dat"
Reading matrix from A_matrix_w.dat...
Matrix shape: (78750, 78750), Non-zeros: 535200
Initializing Quantum Solver (VQLS)...
Running in Classical DIRECT Mode (LU / Spsolve)
Solution calculated. Norm: 3727.0452073607107
Solution written to solution_w.dat
[Quantum Interface] Importing Solution (w)...
DICPCG:  Solving for T, Initial residual = 0.00586325, Final residual = 8.40193e-07, No Iterations 1
Global Volume-Averaged Solid Fraction (Gs) = 0.0552717
DEBUG:  meanT=495.423 meanW=-7.08235 meanDTu=18.4842 A=0
GAMG:  Solving for p_rgh, Initial residual = 0.014555, Final residual = 7.93245e-05, No Iterations 2
time step continuity errors : sum local = 0.000906674, global = -1.84467e-19, cumulative = -9.27706e-18
DILUPBiCGStab:  Solving for omega, Initial residual = 0.000419693, Final residual = 1.18197e-05, No Iterations 1
DILUPBiCGStab:  Solving for k, Initial residual = 0.00819044, Final residual = 0.000159528, No Iterations 1
ExecutionTime = 19.5966 s  ClockTime = 587 s

Courant Number mean: 0.240372 max: 2.90213
Time = 3.6s


[Quantum Interface] Intercepting Solute Solver Call (w)...
[Quantum Interface] Exporting Matrix (Size: 78750)...
[Quantum Interface] Invoking Backend: "python3 ../solute_solver.py A_matrix_w.dat b_vector_w.dat solution_w.dat"
Reading matrix from A_matrix_w.dat...
Matrix shape: (78750, 78750), Non-zeros: 535200
Initializing Quantum Solver (VQLS)...
Running in Classical DIRECT Mode (LU / Spsolve)
Solution calculated. Norm: 3712.7740150174577
Solution written to solution_w.dat
[Quantum Interface] Importing Solution (w)...
DICPCG:  Solving for T, Initial residual = 0.00570199, Final residual = 7.9598e-07, No Iterations 1
Global Volume-Averaged Solid Fraction (Gs) = 0.0528805
DEBUG:  meanT=495.429 meanW=-7.08999 meanDTu=18.4895 A=0
GAMG:  Solving for p_rgh, Initial residual = 0.0140385, Final residual = 0.000131504, No Iterations 1
time step continuity errors : sum local = 0.00146483, global = 2.18017e-19, cumulative = -9.05905e-18
DILUPBiCGStab:  Solving for omega, Initial residual = 0.000416911, Final residual = 1.1865e-05, No Iterations 1
DILUPBiCGStab:  Solving for k, Initial residual = 0.00857867, Final residual = 0.000174288, No Iterations 1
ExecutionTime = 20.1296 s  ClockTime = 603 s

Courant Number mean: 0.252287 max: 3.01303
Time = 3.7s


[Quantum Interface] Intercepting Solute Solver Call (w)...
[Quantum Interface] Exporting Matrix (Size: 78750)...
[Quantum Interface] Invoking Backend: "python3 ../solute_solver.py A_matrix_w.dat b_vector_w.dat solution_w.dat"
Reading matrix from A_matrix_w.dat...
Matrix shape: (78750, 78750), Non-zeros: 535200
Initializing Quantum Solver (VQLS)...
Running in Classical DIRECT Mode (LU / Spsolve)
Solution calculated. Norm: 3698.4621895564196
Solution written to solution_w.dat
[Quantum Interface] Importing Solution (w)...
DICPCG:  Solving for T, Initial residual = 0.00555023, Final residual = 7.55135e-07, No Iterations 1
Global Volume-Averaged Solid Fraction (Gs) = 0.0556807
DEBUG:  meanT=495.435 meanW=-7.16273 meanDTu=18.5951 A=0
GAMG:  Solving for p_rgh, Initial residual = 0.0137378, Final residual = 7.36746e-05, No Iterations 2
time step continuity errors : sum local = 0.000801643, global = 1.89075e-19, cumulative = -8.86997e-18
DILUPBiCGStab:  Solving for omega, Initial residual = 0.0004144, Final residual = 1.19392e-05, No Iterations 1
DILUPBiCGStab:  Solving for k, Initial residual = 0.00902329, Final residual = 0.000189158, No Iterations 1
bounding k, min: -8.00336e-07 max: 0.000964508 average: 0.000286931
ExecutionTime = 20.6652 s  ClockTime = 620 s

Courant Number mean: 0.253376 max: 3.06157
Time = 3.8s


[Quantum Interface] Intercepting Solute Solver Call (w)...
[Quantum Interface] Exporting Matrix (Size: 78750)...
[Quantum Interface] Invoking Backend: "python3 ../solute_solver.py A_matrix_w.dat b_vector_w.dat solution_w.dat"
Reading matrix from A_matrix_w.dat...
Matrix shape: (78750, 78750), Non-zeros: 535200
Initializing Quantum Solver (VQLS)...
Running in Classical DIRECT Mode (LU / Spsolve)
Solution calculated. Norm: 3685.9139572731497
Solution written to solution_w.dat
[Quantum Interface] Importing Solution (w)...
DICPCG:  Solving for T, Initial residual = 0.00540646, Final residual = 7.18209e-07, No Iterations 1
Global Volume-Averaged Solid Fraction (Gs) = 0.0537286
DEBUG:  meanT=495.442 meanW=-7.17578 meanDTu=18.6089 A=0
GAMG:  Solving for p_rgh, Initial residual = 0.0133074, Final residual = 0.000122564, No Iterations 1
time step continuity errors : sum local = 0.00130041, global = -1.93069e-19, cumulative = -9.06304e-18
DILUPBiCGStab:  Solving for omega, Initial residual = 0.00041543, Final residual = 1.19707e-05, No Iterations 1
DILUPBiCGStab:  Solving for k, Initial residual = 0.00944144, Final residual = 0.000203646, No Iterations 1
ExecutionTime = 21.1906 s  ClockTime = 637 s

Courant Number mean: 0.264028 max: 3.16697
Time = 3.9s


[Quantum Interface] Intercepting Solute Solver Call (w)...
[Quantum Interface] Exporting Matrix (Size: 78750)...
[Quantum Interface] Invoking Backend: "python3 ../solute_solver.py A_matrix_w.dat b_vector_w.dat solution_w.dat"
Reading matrix from A_matrix_w.dat...
Matrix shape: (78750, 78750), Non-zeros: 535200
Initializing Quantum Solver (VQLS)...
Running in Classical DIRECT Mode (LU / Spsolve)
Solution calculated. Norm: 3674.5052793758523
Solution written to solution_w.dat
[Quantum Interface] Importing Solution (w)...
DICPCG:  Solving for T, Initial residual = 0.0052697, Final residual = 6.8371e-07, No Iterations 1
Global Volume-Averaged Solid Fraction (Gs) = 0.0557054
DEBUG:  meanT=495.448 meanW=-7.23404 meanDTu=18.6924 A=0
GAMG:  Solving for p_rgh, Initial residual = 0.0130102, Final residual = 7.08091e-05, No Iterations 2
time step continuity errors : sum local = 0.000736582, global = 3.74156e-19, cumulative = -8.68888e-18
DILUPBiCGStab:  Solving for omega, Initial residual = 0.000414789, Final residual = 1.20223e-05, No Iterations 1
DILUPBiCGStab:  Solving for k, Initial residual = 0.00984555, Final residual = 0.000218373, No Iterations 1
bounding k, min: -5.48415e-08 max: 0.00103518 average: 0.000291971
ExecutionTime = 21.7215 s  ClockTime = 653 s

Courant Number mean: 0.266934 max: 3.21801
Time = 4s


[Quantum Interface] Intercepting Solute Solver Call (w)...
[Quantum Interface] Exporting Matrix (Size: 78750)...
[Quantum Interface] Invoking Backend: "python3 ../solute_solver.py A_matrix_w.dat b_vector_w.dat solution_w.dat"
Reading matrix from A_matrix_w.dat...
Matrix shape: (78750, 78750), Non-zeros: 535200
Initializing Quantum Solver (VQLS)...
Running in Classical DIRECT Mode (LU / Spsolve)
Solution calculated. Norm: 3658.429770110924
Solution written to solution_w.dat
[Quantum Interface] Importing Solution (w)...
DICPCG:  Solving for T, Initial residual = 0.00513941, Final residual = 6.51445e-07, No Iterations 1
Global Volume-Averaged Solid Fraction (Gs) = 0.0549934
DEBUG:  meanT=495.454 meanW=-7.23704 meanDTu=18.691 A=0
GAMG:  Solving for p_rgh, Initial residual = 0.0125996, Final residual = 0.00012492, No Iterations 1
time step continuity errors : sum local = 0.00126938, global = 2.20106e-19, cumulative = -8.46878e-18
DILUPBiCGStab:  Solving for omega, Initial residual = 0.00041816, Final residual = 1.21947e-05, No Iterations 1
DILUPBiCGStab:  Solving for k, Initial residual = 0.010223, Final residual = 0.000232519, No Iterations 1
bounding k, min: -8.69756e-07 max: 0.00106843 average: 0.000294761
ExecutionTime = 22.4933 s  ClockTime = 670 s

Courant Number mean: 0.277662 max: 3.32187
Time = 4.1s


[Quantum Interface] Intercepting Solute Solver Call (w)...
[Quantum Interface] Exporting Matrix (Size: 78750)...
[Quantum Interface] Invoking Backend: "python3 ../solute_solver.py A_matrix_w.dat b_vector_w.dat solution_w.dat"
Reading matrix from A_matrix_w.dat...
Matrix shape: (78750, 78750), Non-zeros: 535200
Initializing Quantum Solver (VQLS)...
Running in Classical DIRECT Mode (LU / Spsolve)
Solution calculated. Norm: 3644.7218717031237
Solution written to solution_w.dat
[Quantum Interface] Importing Solution (w)...
DICPCG:  Solving for T, Initial residual = 0.00501593, Final residual = 6.21321e-07, No Iterations 1
Global Volume-Averaged Solid Fraction (Gs) = 0.0564268
DEBUG:  meanT=495.46 meanW=-7.26761 meanDTu=18.732 A=0
GAMG:  Solving for p_rgh, Initial residual = 0.0123419, Final residual = 7.25875e-05, No Iterations 2
time step continuity errors : sum local = 0.000722531, global = -1.98415e-19, cumulative = -8.66719e-18
DILUPBiCGStab:  Solving for omega, Initial residual = 0.000411865, Final residual = 1.20896e-05, No Iterations 1
DILUPBiCGStab:  Solving for k, Initial residual = 0.0106994, Final residual = 0.000249691, No Iterations 1
ExecutionTime = 23.0272 s  ClockTime = 687 s

Courant Number mean: 0.280873 max: 3.37517
Time = 4.2s


[Quantum Interface] Intercepting Solute Solver Call (w)...
[Quantum Interface] Exporting Matrix (Size: 78750)...
[Quantum Interface] Invoking Backend: "python3 ../solute_solver.py A_matrix_w.dat b_vector_w.dat solution_w.dat"
Reading matrix from A_matrix_w.dat...
Matrix shape: (78750, 78750), Non-zeros: 535200
Initializing Quantum Solver (VQLS)...
Running in Classical DIRECT Mode (LU / Spsolve)
Solution calculated. Norm: 3629.4180943388806
Solution written to solution_w.dat
[Quantum Interface] Importing Solution (w)...
DICPCG:  Solving for T, Initial residual = 0.00489872, Final residual = 5.93162e-07, No Iterations 1
Global Volume-Averaged Solid Fraction (Gs) = 0.0566207
DEBUG:  meanT=495.466 meanW=-7.26257 meanDTu=18.7184 A=0
GAMG:  Solving for p_rgh, Initial residual = 0.0119659, Final residual = 6.22044e-05, No Iterations 2
time step continuity errors : sum local = 0.000606289, global = -3.72804e-19, cumulative = -9.04e-18
DILUPBiCGStab:  Solving for omega, Initial residual = 0.000411454, Final residual = 1.23231e-05, No Iterations 1
DILUPBiCGStab:  Solving for k, Initial residual = 0.0111274, Final residual = 0.000268436, No Iterations 1
bounding k, min: -5.40708e-07 max: 0.00113585 average: 0.000300982
ExecutionTime = 23.5794 s  ClockTime = 703 s

Courant Number mean: 0.288071 max: 3.4508
Time = 4.3s


[Quantum Interface] Intercepting Solute Solver Call (w)...
[Quantum Interface] Exporting Matrix (Size: 78750)...
[Quantum Interface] Invoking Backend: "python3 ../solute_solver.py A_matrix_w.dat b_vector_w.dat solution_w.dat"
Reading matrix from A_matrix_w.dat...
Matrix shape: (78750, 78750), Non-zeros: 535200
Initializing Quantum Solver (VQLS)...
Running in Classical DIRECT Mode (LU / Spsolve)
Solution calculated. Norm: 3619.936670574464
Solution written to solution_w.dat
[Quantum Interface] Importing Solution (w)...
DICPCG:  Solving for T, Initial residual = 0.00478732, Final residual = 5.66819e-07, No Iterations 1
Global Volume-Averaged Solid Fraction (Gs) = 0.0578688
DEBUG:  meanT=495.471 meanW=-7.29272 meanDTu=18.7589 A=0
GAMG:  Solving for p_rgh, Initial residual = 0.0116388, Final residual = 0.000108074, No Iterations 1
time step continuity errors : sum local = 0.00102768, global = 5.23536e-20, cumulative = -8.98764e-18
DILUPBiCGStab:  Solving for omega, Initial residual = 0.000419287, Final residual = 1.23291e-05, No Iterations 1
DILUPBiCGStab:  Solving for k, Initial residual = 0.0114628, Final residual = 0.000284826, No Iterations 1
bounding k, min: -5.73496e-08 max: 0.00116677 average: 0.000304322
ExecutionTime = 24.1041 s  ClockTime = 720 s

Courant Number mean: 0.296402 max: 3.55412
Time = 4.4s


[Quantum Interface] Intercepting Solute Solver Call (w)...
[Quantum Interface] Exporting Matrix (Size: 78750)...
[Quantum Interface] Invoking Backend: "python3 ../solute_solver.py A_matrix_w.dat b_vector_w.dat solution_w.dat"
Reading matrix from A_matrix_w.dat...
Matrix shape: (78750, 78750), Non-zeros: 535200
Initializing Quantum Solver (VQLS)...
Running in Classical DIRECT Mode (LU / Spsolve)
Solution calculated. Norm: 3599.48367503334
Solution written to solution_w.dat
[Quantum Interface] Importing Solution (w)...
DICPCG:  Solving for T, Initial residual = 0.00468129, Final residual = 5.42457e-07, No Iterations 1
Global Volume-Averaged Solid Fraction (Gs) = 0.057769
DEBUG:  meanT=495.477 meanW=-7.26596 meanDTu=18.7121 A=0
GAMG:  Solving for p_rgh, Initial residual = 0.0114157, Final residual = 6.53028e-05, No Iterations 2
time step continuity errors : sum local = 0.000609757, global = -4.04327e-20, cumulative = -9.02808e-18
DILUPBiCGStab:  Solving for omega, Initial residual = 0.000410875, Final residual = 1.24682e-05, No Iterations 1
DILUPBiCGStab:  Solving for k, Initial residual = 0.011871, Final residual = 0.000301034, No Iterations 1
ExecutionTime = 24.6284 s  ClockTime = 737 s

Courant Number mean: 0.301527 max: 3.61406
Time = 4.5s


[Quantum Interface] Intercepting Solute Solver Call (w)...
[Quantum Interface] Exporting Matrix (Size: 78750)...
[Quantum Interface] Invoking Backend: "python3 ../solute_solver.py A_matrix_w.dat b_vector_w.dat solution_w.dat"
Reading matrix from A_matrix_w.dat...
Matrix shape: (78750, 78750), Non-zeros: 535200
Initializing Quantum Solver (VQLS)...
Running in Classical DIRECT Mode (LU / Spsolve)
Solution calculated. Norm: 3585.5658555870464
Solution written to solution_w.dat
[Quantum Interface] Importing Solution (w)...
DICPCG:  Solving for T, Initial residual = 0.00458025, Final residual = 5.19598e-07, No Iterations 1
Global Volume-Averaged Solid Fraction (Gs) = 0.0593621
DEBUG:  meanT=495.483 meanW=-7.27998 meanDTu=18.728 A=0
GAMG:  Solving for p_rgh, Initial residual = 0.0110899, Final residual = 5.77739e-05, No Iterations 2
time step continuity errors : sum local = 0.000528719, global = 1.14662e-19, cumulative = -8.91341e-18
DILUPBiCGStab:  Solving for omega, Initial residual = 0.000414455, Final residual = 1.25345e-05, No Iterations 1
DILUPBiCGStab:  Solving for k, Initial residual = 0.012266, Final residual = 0.000317222, No Iterations 1
ExecutionTime = 25.1606 s  ClockTime = 753 s

Courant Number mean: 0.308557 max: 3.6881
Time = 4.6s


[Quantum Interface] Intercepting Solute Solver Call (w)...
[Quantum Interface] Exporting Matrix (Size: 78750)...
[Quantum Interface] Invoking Backend: "python3 ../solute_solver.py A_matrix_w.dat b_vector_w.dat solution_w.dat"
Reading matrix from A_matrix_w.dat...
Matrix shape: (78750, 78750), Non-zeros: 535200
Initializing Quantum Solver (VQLS)...
Running in Classical DIRECT Mode (LU / Spsolve)
Solution calculated. Norm: 3571.771707427332
Solution written to solution_w.dat
[Quantum Interface] Importing Solution (w)...
DICPCG:  Solving for T, Initial residual = 0.00448385, Final residual = 4.98387e-07, No Iterations 1
Global Volume-Averaged Solid Fraction (Gs) = 0.0592496
DEBUG:  meanT=495.488 meanW=-7.26126 meanDTu=18.6936 A=0
GAMG:  Solving for p_rgh, Initial residual = 0.010799, Final residual = 4.9959e-05, No Iterations 2
time step continuity errors : sum local = 0.000449229, global = -6.833e-20, cumulative = -8.98174e-18
DILUPBiCGStab:  Solving for omega, Initial residual = 0.000416644, Final residual = 1.26877e-05, No Iterations 1
DILUPBiCGStab:  Solving for k, Initial residual = 0.0126012, Final residual = 0.000329667, No Iterations 1
bounding k, min: -4.17287e-08 max: 0.00126804 average: 0.000315534
ExecutionTime = 25.7008 s  ClockTime = 770 s

Courant Number mean: 0.315925 max: 3.7607
Time = 4.7s


[Quantum Interface] Intercepting Solute Solver Call (w)...
[Quantum Interface] Exporting Matrix (Size: 78750)...
[Quantum Interface] Invoking Backend: "python3 ../solute_solver.py A_matrix_w.dat b_vector_w.dat solution_w.dat"
Reading matrix from A_matrix_w.dat...
Matrix shape: (78750, 78750), Non-zeros: 535200
Initializing Quantum Solver (VQLS)...
Running in Classical DIRECT Mode (LU / Spsolve)
Solution calculated. Norm: 3559.2283023534014
Solution written to solution_w.dat
[Quantum Interface] Importing Solution (w)...
DICPCG:  Solving for T, Initial residual = 0.00439176, Final residual = 4.78528e-07, No Iterations 1
Global Volume-Averaged Solid Fraction (Gs) = 0.0611472
DEBUG:  meanT=495.494 meanW=-7.27288 meanDTu=18.706 A=0
GAMG:  Solving for p_rgh, Initial residual = 0.0105448, Final residual = 4.66614e-05, No Iterations 2
time step continuity errors : sum local = 0.000412102, global = 2.06434e-19, cumulative = -8.77531e-18
DILUPBiCGStab:  Solving for omega, Initial residual = 0.000409586, Final residual = 1.25042e-05, No Iterations 1
DILUPBiCGStab:  Solving for k, Initial residual = 0.0128931, Final residual = 0.000343551, No Iterations 1
ExecutionTime = 26.2362 s  ClockTime = 786 s

Courant Number mean: 0.323427 max: 3.83104
Time = 4.8s


[Quantum Interface] Intercepting Solute Solver Call (w)...
[Quantum Interface] Exporting Matrix (Size: 78750)...
[Quantum Interface] Invoking Backend: "python3 ../solute_solver.py A_matrix_w.dat b_vector_w.dat solution_w.dat"
Reading matrix from A_matrix_w.dat...
Matrix shape: (78750, 78750), Non-zeros: 535200
Initializing Quantum Solver (VQLS)...
Running in Classical DIRECT Mode (LU / Spsolve)
Solution calculated. Norm: 3546.765642496771
Solution written to solution_w.dat
[Quantum Interface] Importing Solution (w)...
DICPCG:  Solving for T, Initial residual = 0.0043037, Final residual = 4.59814e-07, No Iterations 1
Global Volume-Averaged Solid Fraction (Gs) = 0.0610671
DEBUG:  meanT=495.499 meanW=-7.25636 meanDTu=18.6751 A=0
GAMG:  Solving for p_rgh, Initial residual = 0.0103549, Final residual = 4.57646e-05, No Iterations 2
time step continuity errors : sum local = 0.000392852, global = -9.40767e-20, cumulative = -8.86939e-18
DILUPBiCGStab:  Solving for omega, Initial residual = 0.000411566, Final residual = 1.28087e-05, No Iterations 1
DILUPBiCGStab:  Solving for k, Initial residual = 0.0131125, Final residual = 0.000356904, No Iterations 1
ExecutionTime = 26.7621 s  ClockTime = 803 s

Courant Number mean: 0.330832 max: 3.90168
Time = 4.9s


[Quantum Interface] Intercepting Solute Solver Call (w)...
[Quantum Interface] Exporting Matrix (Size: 78750)...
[Quantum Interface] Invoking Backend: "python3 ../solute_solver.py A_matrix_w.dat b_vector_w.dat solution_w.dat"
Reading matrix from A_matrix_w.dat...
Matrix shape: (78750, 78750), Non-zeros: 535200
Initializing Quantum Solver (VQLS)...
Running in Classical DIRECT Mode (LU / Spsolve)
Solution calculated. Norm: 3534.4818572844492
Solution written to solution_w.dat
[Quantum Interface] Importing Solution (w)...
DICPCG:  Solving for T, Initial residual = 0.00421939, Final residual = 4.42154e-07, No Iterations 1
Global Volume-Averaged Solid Fraction (Gs) = 0.0628513
DEBUG:  meanT=495.505 meanW=-7.25937 meanDTu=18.6743 A=0
GAMG:  Solving for p_rgh, Initial residual = 0.0101292, Final residual = 4.47483e-05, No Iterations 2
time step continuity errors : sum local = 0.000375952, global = -1.47229e-19, cumulative = -9.01662e-18
DILUPBiCGStab:  Solving for omega, Initial residual = 0.000411542, Final residual = 1.26964e-05, No Iterations 1
DILUPBiCGStab:  Solving for k, Initial residual = 0.0132559, Final residual = 0.000364241, No Iterations 1
ExecutionTime = 27.2954 s  ClockTime = 820 s

Courant Number mean: 0.338018 max: 3.97771
Time = 5s


[Quantum Interface] Intercepting Solute Solver Call (w)...
[Quantum Interface] Exporting Matrix (Size: 78750)...
[Quantum Interface] Invoking Backend: "python3 ../solute_solver.py A_matrix_w.dat b_vector_w.dat solution_w.dat"
Reading matrix from A_matrix_w.dat...
Matrix shape: (78750, 78750), Non-zeros: 535200
Initializing Quantum Solver (VQLS)...
Running in Classical DIRECT Mode (LU / Spsolve)
Solution calculated. Norm: 3522.0594319832444
Solution written to solution_w.dat
[Quantum Interface] Importing Solution (w)...
DICPCG:  Solving for T, Initial residual = 0.00413796, Final residual = 4.25565e-07, No Iterations 1
Global Volume-Averaged Solid Fraction (Gs) = 0.063231
DEBUG:  meanT=495.51 meanW=-7.23847 meanDTu=18.6368 A=0
GAMG:  Solving for p_rgh, Initial residual = 0.00993852, Final residual = 4.43183e-05, No Iterations 2
time step continuity errors : sum local = 0.000368171, global = -2.04499e-19, cumulative = -9.22111e-18
DILUPBiCGStab:  Solving for omega, Initial residual = 0.000405437, Final residual = 1.2807e-05, No Iterations 1
DILUPBiCGStab:  Solving for k, Initial residual = 0.0133592, Final residual = 0.000370715, No Iterations 1
ExecutionTime = 28.0646 s  ClockTime = 837 s

Courant Number mean: 0.345022 max: 4.06673
Time = 5.1s


[Quantum Interface] Intercepting Solute Solver Call (w)...
[Quantum Interface] Exporting Matrix (Size: 78750)...
[Quantum Interface] Invoking Backend: "python3 ../solute_solver.py A_matrix_w.dat b_vector_w.dat solution_w.dat"
Reading matrix from A_matrix_w.dat...
Matrix shape: (78750, 78750), Non-zeros: 535200
Initializing Quantum Solver (VQLS)...
Running in Classical DIRECT Mode (LU / Spsolve)
Solution calculated. Norm: 3510.611061766708
Solution written to solution_w.dat
[Quantum Interface] Importing Solution (w)...
DICPCG:  Solving for T, Initial residual = 0.00405929, Final residual = 4.09867e-07, No Iterations 1
Global Volume-Averaged Solid Fraction (Gs) = 0.0645863
DEBUG:  meanT=495.515 meanW=-7.23539 meanDTu=18.6268 A=0
GAMG:  Solving for p_rgh, Initial residual = 0.0097186, Final residual = 4.43289e-05, No Iterations 2
time step continuity errors : sum local = 0.000363653, global = 3.07239e-22, cumulative = -9.22081e-18
DILUPBiCGStab:  Solving for omega, Initial residual = 0.000402032, Final residual = 1.25259e-05, No Iterations 1
DILUPBiCGStab:  Solving for k, Initial residual = 0.0134098, Final residual = 0.000377494, No Iterations 1
bounding k, min: -3.52653e-07 max: 0.00142235 average: 0.000337364
ExecutionTime = 28.6127 s  ClockTime = 853 s

Courant Number mean: 0.352121 max: 4.15095
Time = 5.2s


[Quantum Interface] Intercepting Solute Solver Call (w)...
[Quantum Interface] Exporting Matrix (Size: 78750)...
[Quantum Interface] Invoking Backend: "python3 ../solute_solver.py A_matrix_w.dat b_vector_w.dat solution_w.dat"
Reading matrix from A_matrix_w.dat...
Matrix shape: (78750, 78750), Non-zeros: 535200
Initializing Quantum Solver (VQLS)...
Running in Classical DIRECT Mode (LU / Spsolve)
Solution calculated. Norm: 3497.7780743103717
Solution written to solution_w.dat
[Quantum Interface] Importing Solution (w)...
DICPCG:  Solving for T, Initial residual = 0.00398343, Final residual = 3.94976e-07, No Iterations 1
Global Volume-Averaged Solid Fraction (Gs) = 0.0650323
DEBUG:  meanT=495.521 meanW=-7.21158 meanDTu=18.585 A=0
GAMG:  Solving for p_rgh, Initial residual = 0.00952777, Final residual = 4.57933e-05, No Iterations 2
time step continuity errors : sum local = 0.0003699, global = -4.13583e-20, cumulative = -9.26217e-18
DILUPBiCGStab:  Solving for omega, Initial residual = 0.00039576, Final residual = 1.27366e-05, No Iterations 1
DILUPBiCGStab:  Solving for k, Initial residual = 0.0133606, Final residual = 0.000378276, No Iterations 1
bounding k, min: -5.94055e-08 max: 0.00145054 average: 0.000342122
ExecutionTime = 29.145 s  ClockTime = 870 s

Courant Number mean: 0.359327 max: 4.23434
Time = 5.3s


[Quantum Interface] Intercepting Solute Solver Call (w)...
[Quantum Interface] Exporting Matrix (Size: 78750)...
[Quantum Interface] Invoking Backend: "python3 ../solute_solver.py A_matrix_w.dat b_vector_w.dat solution_w.dat"
Reading matrix from A_matrix_w.dat...
Matrix shape: (78750, 78750), Non-zeros: 535200
Initializing Quantum Solver (VQLS)...
Running in Classical DIRECT Mode (LU / Spsolve)
Solution calculated. Norm: 3485.9244457523855
Solution written to solution_w.dat
[Quantum Interface] Importing Solution (w)...
DICPCG:  Solving for T, Initial residual = 0.00391051, Final residual = 3.80865e-07, No Iterations 1
Global Volume-Averaged Solid Fraction (Gs) = 0.0664686
DEBUG:  meanT=495.526 meanW=-7.20046 meanDTu=18.5627 A=0
GAMG:  Solving for p_rgh, Initial residual = 0.00931764, Final residual = 4.69969e-05, No Iterations 2
time step continuity errors : sum local = 0.000374705, global = -1.52821e-19, cumulative = -9.41499e-18
DILUPBiCGStab:  Solving for omega, Initial residual = 0.00039084, Final residual = 1.24842e-05, No Iterations 1
DILUPBiCGStab:  Solving for k, Initial residual = 0.0131511, Final residual = 0.000376595, No Iterations 1
bounding k, min: -7.50269e-08 max: 0.00147817 average: 0.000346997
ExecutionTime = 29.6844 s  ClockTime = 887 s

Courant Number mean: 0.366679 max: 4.31857
Time = 5.4s


[Quantum Interface] Intercepting Solute Solver Call (w)...
[Quantum Interface] Exporting Matrix (Size: 78750)...
[Quantum Interface] Invoking Backend: "python3 ../solute_solver.py A_matrix_w.dat b_vector_w.dat solution_w.dat"
Reading matrix from A_matrix_w.dat...
Matrix shape: (78750, 78750), Non-zeros: 535200
Initializing Quantum Solver (VQLS)...
Running in Classical DIRECT Mode (LU / Spsolve)
Solution calculated. Norm: 3473.58747905755
Solution written to solution_w.dat
[Quantum Interface] Importing Solution (w)...
DICPCG:  Solving for T, Initial residual = 0.00384036, Final residual = 3.6749e-07, No Iterations 1
Global Volume-Averaged Solid Fraction (Gs) = 0.0670839
DEBUG:  meanT=495.531 meanW=-7.17519 meanDTu=18.5187 A=0
GAMG:  Solving for p_rgh, Initial residual = 0.00914008, Final residual = 4.76139e-05, No Iterations 2
time step continuity errors : sum local = 0.000373408, global = -1.46983e-19, cumulative = -9.56197e-18
DILUPBiCGStab:  Solving for omega, Initial residual = 0.000388056, Final residual = 1.29218e-05, No Iterations 1
DILUPBiCGStab:  Solving for k, Initial residual = 0.0129385, Final residual = 0.000376481, No Iterations 1
ExecutionTime = 30.2143 s  ClockTime = 903 s

Courant Number mean: 0.3741 max: 4.40233
Time = 5.5s


[Quantum Interface] Intercepting Solute Solver Call (w)...
[Quantum Interface] Exporting Matrix (Size: 78750)...
[Quantum Interface] Invoking Backend: "python3 ../solute_solver.py A_matrix_w.dat b_vector_w.dat solution_w.dat"
Reading matrix from A_matrix_w.dat...
Matrix shape: (78750, 78750), Non-zeros: 535200
Initializing Quantum Solver (VQLS)...
Running in Classical DIRECT Mode (LU / Spsolve)
Solution calculated. Norm: 3462.121018075695
Solution written to solution_w.dat
[Quantum Interface] Importing Solution (w)...
DICPCG:  Solving for T, Initial residual = 0.00377282, Final residual = 3.55483e-07, No Iterations 1
Global Volume-Averaged Solid Fraction (Gs) = 0.0686376
DEBUG:  meanT=495.536 meanW=-7.16155 meanDTu=18.4927 A=0
GAMG:  Solving for p_rgh, Initial residual = 0.00896385, Final residual = 4.80426e-05, No Iterations 2
time step continuity errors : sum local = 0.000370688, global = -2.58818e-19, cumulative = -9.82079e-18
DILUPBiCGStab:  Solving for omega, Initial residual = 0.000382031, Final residual = 1.25999e-05, No Iterations 1
DILUPBiCGStab:  Solving for k, Initial residual = 0.0127272, Final residual = 0.000374497, No Iterations 1
bounding k, min: -3.50719e-07 max: 0.00153309 average: 0.000357167
ExecutionTime = 30.7465 s  ClockTime = 920 s

Courant Number mean: 0.381549 max: 4.4858
Time = 5.6s


[Quantum Interface] Intercepting Solute Solver Call (w)...
[Quantum Interface] Exporting Matrix (Size: 78750)...
[Quantum Interface] Invoking Backend: "python3 ../solute_solver.py A_matrix_w.dat b_vector_w.dat solution_w.dat"
Reading matrix from A_matrix_w.dat...
Matrix shape: (78750, 78750), Non-zeros: 535200
Initializing Quantum Solver (VQLS)...
Running in Classical DIRECT Mode (LU / Spsolve)
Solution calculated. Norm: 3451.0761926765103
Solution written to solution_w.dat
[Quantum Interface] Importing Solution (w)...
DICPCG:  Solving for T, Initial residual = 0.00370772, Final residual = 3.44115e-07, No Iterations 1
Global Volume-Averaged Solid Fraction (Gs) = 0.0695105
DEBUG:  meanT=495.541 meanW=-7.13948 meanDTu=18.4537 A=0
GAMG:  Solving for p_rgh, Initial residual = 0.0087787, Final residual = 4.89484e-05, No Iterations 2
time step continuity errors : sum local = 0.00037309, global = 1.10698e-19, cumulative = -9.71009e-18
DILUPBiCGStab:  Solving for omega, Initial residual = 0.000375621, Final residual = 1.2993e-05, No Iterations 1
DILUPBiCGStab:  Solving for k, Initial residual = 0.0125587, Final residual = 0.000369822, No Iterations 1
bounding k, min: -7.82232e-08 max: 0.00156391 average: 0.000362464
ExecutionTime = 31.2843 s  ClockTime = 936 s

Courant Number mean: 0.388966 max: 4.56352
Time = 5.7s


[Quantum Interface] Intercepting Solute Solver Call (w)...
[Quantum Interface] Exporting Matrix (Size: 78750)...
[Quantum Interface] Invoking Backend: "python3 ../solute_solver.py A_matrix_w.dat b_vector_w.dat solution_w.dat"
Reading matrix from A_matrix_w.dat...
Matrix shape: (78750, 78750), Non-zeros: 535200
Initializing Quantum Solver (VQLS)...
Running in Classical DIRECT Mode (LU / Spsolve)
Solution calculated. Norm: 3440.4040564568427
Solution written to solution_w.dat
[Quantum Interface] Importing Solution (w)...
DICPCG:  Solving for T, Initial residual = 0.00364494, Final residual = 3.33303e-07, No Iterations 1
Global Volume-Averaged Solid Fraction (Gs) = 0.0708262
DEBUG:  meanT=495.546 meanW=-7.12403 meanDTu=18.4249 A=0
GAMG:  Solving for p_rgh, Initial residual = 0.00861343, Final residual = 5.11069e-05, No Iterations 2
time step continuity errors : sum local = 0.00038398, global = 4.08628e-21, cumulative = -9.706e-18
DILUPBiCGStab:  Solving for omega, Initial residual = 0.000368119, Final residual = 1.24874e-05, No Iterations 1
DILUPBiCGStab:  Solving for k, Initial residual = 0.0123904, Final residual = 0.000369536, No Iterations 1
bounding k, min: -1.60851e-07 max: 0.00159289 average: 0.000367899
ExecutionTime = 31.8271 s  ClockTime = 953 s

Courant Number mean: 0.396349 max: 4.64182
Time = 5.8s


[Quantum Interface] Intercepting Solute Solver Call (w)...
[Quantum Interface] Exporting Matrix (Size: 78750)...
[Quantum Interface] Invoking Backend: "python3 ../solute_solver.py A_matrix_w.dat b_vector_w.dat solution_w.dat"
Reading matrix from A_matrix_w.dat...
Matrix shape: (78750, 78750), Non-zeros: 535200
Initializing Quantum Solver (VQLS)...
Running in Classical DIRECT Mode (LU / Spsolve)
Solution calculated. Norm: 3430.316447337923
Solution written to solution_w.dat
[Quantum Interface] Importing Solution (w)...
DICPCG:  Solving for T, Initial residual = 0.00358434, Final residual = 3.22956e-07, No Iterations 1
Global Volume-Averaged Solid Fraction (Gs) = 0.0717126
DEBUG:  meanT=495.551 meanW=-7.10292 meanDTu=18.3875 A=0
GAMG:  Solving for p_rgh, Initial residual = 0.00848245, Final residual = 5.46941e-05, No Iterations 2
time step continuity errors : sum local = 0.000402288, global = 2.01549e-19, cumulative = -9.50445e-18
DILUPBiCGStab:  Solving for omega, Initial residual = 0.000360832, Final residual = 1.24908e-05, No Iterations 1
DILUPBiCGStab:  Solving for k, Initial residual = 0.0122281, Final residual = 0.000366768, No Iterations 1
bounding k, min: -9.91364e-07 max: 0.00162106 average: 0.000373457
ExecutionTime = 32.3644 s  ClockTime = 970 s

Courant Number mean: 0.403767 max: 4.7226
Time = 5.9s


[Quantum Interface] Intercepting Solute Solver Call (w)...
[Quantum Interface] Exporting Matrix (Size: 78750)...
[Quantum Interface] Invoking Backend: "python3 ../solute_solver.py A_matrix_w.dat b_vector_w.dat solution_w.dat"
Reading matrix from A_matrix_w.dat...
Matrix shape: (78750, 78750), Non-zeros: 535200
Initializing Quantum Solver (VQLS)...
Running in Classical DIRECT Mode (LU / Spsolve)
Solution calculated. Norm: 3420.1634096242983
Solution written to solution_w.dat
[Quantum Interface] Importing Solution (w)...
DICPCG:  Solving for T, Initial residual = 0.00352581, Final residual = 3.13049e-07, No Iterations 1
Global Volume-Averaged Solid Fraction (Gs) = 0.0734563
DEBUG:  meanT=495.556 meanW=-7.08605 meanDTu=18.3567 A=0
GAMG:  Solving for p_rgh, Initial residual = 0.00832226, Final residual = 5.80597e-05, No Iterations 2
time step continuity errors : sum local = 0.000420319, global = -2.93721e-20, cumulative = -9.53383e-18
DILUPBiCGStab:  Solving for omega, Initial residual = 0.000351521, Final residual = 1.18563e-05, No Iterations 1
DILUPBiCGStab:  Solving for k, Initial residual = 0.0120397, Final residual = 0.000366742, No Iterations 1
bounding k, min: -6.51331e-07 max: 0.00164871 average: 0.000379179
ExecutionTime = 32.9051 s  ClockTime = 986 s

Courant Number mean: 0.411242 max: 4.7969
Time = 6s


[Quantum Interface] Intercepting Solute Solver Call (w)...
[Quantum Interface] Exporting Matrix (Size: 78750)...
[Quantum Interface] Invoking Backend: "python3 ../solute_solver.py A_matrix_w.dat b_vector_w.dat solution_w.dat"
Reading matrix from A_matrix_w.dat...
Matrix shape: (78750, 78750), Non-zeros: 535200
Initializing Quantum Solver (VQLS)...
Running in Classical DIRECT Mode (LU / Spsolve)
Solution calculated. Norm: 3410.313591160239
Solution written to solution_w.dat
[Quantum Interface] Importing Solution (w)...
DICPCG:  Solving for T, Initial residual = 0.00346923, Final residual = 3.03558e-07, No Iterations 1
Global Volume-Averaged Solid Fraction (Gs) = 0.0744593
DEBUG:  meanT=495.561 meanW=-7.066 meanDTu=18.321 A=0
GAMG:  Solving for p_rgh, Initial residual = 0.00817089, Final residual = 6.04953e-05, No Iterations 2
time step continuity errors : sum local = 0.000430707, global = 1.36722e-19, cumulative = -9.3971e-18
DILUPBiCGStab:  Solving for omega, Initial residual = 0.00034423, Final residual = 1.17504e-05, No Iterations 1
DILUPBiCGStab:  Solving for k, Initial residual = 0.011902, Final residual = 0.000365167, No Iterations 1
bounding k, min: -2.0279e-07 max: 0.00167582 average: 0.00038507
ExecutionTime = 33.6891 s  ClockTime = 1003 s

Courant Number mean: 0.418776 max: 4.87905
Time = 6.1s


[Quantum Interface] Intercepting Solute Solver Call (w)...
[Quantum Interface] Exporting Matrix (Size: 78750)...
[Quantum Interface] Invoking Backend: "python3 ../solute_solver.py A_matrix_w.dat b_vector_w.dat solution_w.dat"
Reading matrix from A_matrix_w.dat...
Matrix shape: (78750, 78750), Non-zeros: 535200
Initializing Quantum Solver (VQLS)...
Running in Classical DIRECT Mode (LU / Spsolve)
Solution calculated. Norm: 3400.3974941185784
Solution written to solution_w.dat
[Quantum Interface] Importing Solution (w)...
DICPCG:  Solving for T, Initial residual = 0.00341451, Final residual = 2.94461e-07, No Iterations 1
Global Volume-Averaged Solid Fraction (Gs) = 0.0759621
DEBUG:  meanT=495.566 meanW=-7.04761 meanDTu=18.2879 A=0
GAMG:  Solving for p_rgh, Initial residual = 0.00801333, Final residual = 6.13812e-05, No Iterations 2
time step continuity errors : sum local = 0.000431132, global = 4.96499e-20, cumulative = -9.34746e-18
[...]

Courant Number mean: 1.51911 max: 11.8768
Time = 98.5s


[Quantum Interface] Intercepting Solute Solver Call (w)...
[Quantum Interface] Exporting Matrix (Size: 78750)...
[Quantum Interface] Invoking Backend: "python3 ../solute_solver.py A_matrix_w.dat b_vector_w.dat solution_w.dat"
Reading matrix from A_matrix_w.dat...
Matrix shape: (78750, 78750), Non-zeros: 535200
Initializing Quantum Solver (VQLS)...
Running in Classical DIRECT Mode (LU / Spsolve)
Solution calculated. Norm: 0.0
Solution written to solution_w.dat
[Quantum Interface] Importing Solution (w)...
DICPCG:  Solving for T, Initial residual = 4.76163e-05, Final residual = 2.08572e-09, No Iterations 1
Global Volume-Averaged Solid Fraction (Gs) = 0.257143
DEBUG:  meanT=497.112 meanW=0 meanDTu=5.90824 A=0
GAMG:  Solving for p_rgh, Initial residual = 0.00024451, Final residual = 2.03757e-06, No Iterations 2
time step continuity errors : sum local = 3.12751e-06, global = -3.48194e-19, cumulative = -2.00147e-18
DILUPBiCGStab:  Solving for omega, Initial residual = 2.8486e-05, Final residual = 1.40704e-06, No Iterations 1
DILUPBiCGStab:  Solving for k, Initial residual = 0.000356264, Final residual = 1.74934e-05, No Iterations 1
ExecutionTime = 586.57 s  ClockTime = 25099 s

Courant Number mean: 1.51904 max: 11.8921
Time = 98.6s


[Quantum Interface] Intercepting Solute Solver Call (w)...
[Quantum Interface] Exporting Matrix (Size: 78750)...
[Quantum Interface] Invoking Backend: "python3 ../solute_solver.py A_matrix_w.dat b_vector_w.dat solution_w.dat"
Reading matrix from A_matrix_w.dat...
Matrix shape: (78750, 78750), Non-zeros: 535200
Initializing Quantum Solver (VQLS)...
Running in Classical DIRECT Mode (LU / Spsolve)
Solution calculated. Norm: 0.0
Solution written to solution_w.dat
[Quantum Interface] Importing Solution (w)...
DICPCG:  Solving for T, Initial residual = 4.75361e-05, Final residual = 2.08224e-09, No Iterations 1
Global Volume-Averaged Solid Fraction (Gs) = 0.257143
DEBUG:  meanT=497.112 meanW=0 meanDTu=5.90759 A=0
GAMG:  Solving for p_rgh, Initial residual = 0.00024091, Final residual = 2.0698e-06, No Iterations 2
time step continuity errors : sum local = 3.14506e-06, global = -6.20793e-19, cumulative = -2.62226e-18
DILUPBiCGStab:  Solving for omega, Initial residual = 2.84494e-05, Final residual = 1.41211e-06, No Iterations 1
DILUPBiCGStab:  Solving for k, Initial residual = 0.000364865, Final residual = 1.82931e-05, No Iterations 1
ExecutionTime = 587.069 s  ClockTime = 25115 s

Courant Number mean: 1.51898 max: 11.9041
Time = 98.7s


[Quantum Interface] Intercepting Solute Solver Call (w)...
[Quantum Interface] Exporting Matrix (Size: 78750)...
[Quantum Interface] Invoking Backend: "python3 ../solute_solver.py A_matrix_w.dat b_vector_w.dat solution_w.dat"
Reading matrix from A_matrix_w.dat...
Matrix shape: (78750, 78750), Non-zeros: 535200
Initializing Quantum Solver (VQLS)...
Running in Classical DIRECT Mode (LU / Spsolve)
Solution calculated. Norm: 0.0
Solution written to solution_w.dat
[Quantum Interface] Importing Solution (w)...
DICPCG:  Solving for T, Initial residual = 4.74561e-05, Final residual = 2.07876e-09, No Iterations 1
Global Volume-Averaged Solid Fraction (Gs) = 0.257143
DEBUG:  meanT=497.113 meanW=0 meanDTu=5.90694 A=0
GAMG:  Solving for p_rgh, Initial residual = 0.000238817, Final residual = 2.08092e-06, No Iterations 2
time step continuity errors : sum local = 3.1963e-06, global = 2.44225e-19, cumulative = -2.37804e-18
DILUPBiCGStab:  Solving for omega, Initial residual = 2.84777e-05, Final residual = 1.44461e-06, No Iterations 1
DILUPBiCGStab:  Solving for k, Initial residual = 0.000379652, Final residual = 1.89218e-05, No Iterations 1
ExecutionTime = 587.572 s  ClockTime = 25130 s

Courant Number mean: 1.51892 max: 11.9124
Time = 98.8s


[Quantum Interface] Intercepting Solute Solver Call (w)...
[Quantum Interface] Exporting Matrix (Size: 78750)...
[Quantum Interface] Invoking Backend: "python3 ../solute_solver.py A_matrix_w.dat b_vector_w.dat solution_w.dat"
Reading matrix from A_matrix_w.dat...
Matrix shape: (78750, 78750), Non-zeros: 535200
Initializing Quantum Solver (VQLS)...
Running in Classical DIRECT Mode (LU / Spsolve)
Solution calculated. Norm: 0.0
Solution written to solution_w.dat
[Quantum Interface] Importing Solution (w)...
DICPCG:  Solving for T, Initial residual = 4.73762e-05, Final residual = 2.07528e-09, No Iterations 1
Global Volume-Averaged Solid Fraction (Gs) = 0.257143
DEBUG:  meanT=497.114 meanW=0 meanDTu=5.90629 A=0
GAMG:  Solving for p_rgh, Initial residual = 0.000238739, Final residual = 2.08906e-06, No Iterations 2
time step continuity errors : sum local = 3.17082e-06, global = -3.55384e-19, cumulative = -2.73342e-18
DILUPBiCGStab:  Solving for omega, Initial residual = 2.85881e-05, Final residual = 1.43082e-06, No Iterations 1
DILUPBiCGStab:  Solving for k, Initial residual = 0.000364678, Final residual = 1.80385e-05, No Iterations 1
ExecutionTime = 588.069 s  ClockTime = 25146 s

Courant Number mean: 1.51887 max: 11.9214
Time = 98.9s


[Quantum Interface] Intercepting Solute Solver Call (w)...
[Quantum Interface] Exporting Matrix (Size: 78750)...
[Quantum Interface] Invoking Backend: "python3 ../solute_solver.py A_matrix_w.dat b_vector_w.dat solution_w.dat"
Reading matrix from A_matrix_w.dat...
Matrix shape: (78750, 78750), Non-zeros: 535200
Initializing Quantum Solver (VQLS)...
Running in Classical DIRECT Mode (LU / Spsolve)
Solution calculated. Norm: 0.0
Solution written to solution_w.dat
[Quantum Interface] Importing Solution (w)...
DICPCG:  Solving for T, Initial residual = 4.72964e-05, Final residual = 2.07181e-09, No Iterations 1
Global Volume-Averaged Solid Fraction (Gs) = 0.257143
DEBUG:  meanT=497.114 meanW=0 meanDTu=5.90564 A=0
GAMG:  Solving for p_rgh, Initial residual = 0.000238811, Final residual = 2.03921e-06, No Iterations 2
time step continuity errors : sum local = 3.0914e-06, global = -3.54838e-19, cumulative = -3.08826e-18
DILUPBiCGStab:  Solving for omega, Initial residual = 2.83577e-05, Final residual = 1.39774e-06, No Iterations 1
DILUPBiCGStab:  Solving for k, Initial residual = 0.000355555, Final residual = 1.70813e-05, No Iterations 1
ExecutionTime = 588.576 s  ClockTime = 25161 s

Courant Number mean: 1.51882 max: 11.9261
Time = 99s


[Quantum Interface] Intercepting Solute Solver Call (w)...
[Quantum Interface] Exporting Matrix (Size: 78750)...
[Quantum Interface] Invoking Backend: "python3 ../solute_solver.py A_matrix_w.dat b_vector_w.dat solution_w.dat"
Reading matrix from A_matrix_w.dat...
Matrix shape: (78750, 78750), Non-zeros: 535200
Initializing Quantum Solver (VQLS)...
Running in Classical DIRECT Mode (LU / Spsolve)
Solution calculated. Norm: 0.0
Solution written to solution_w.dat
[Quantum Interface] Importing Solution (w)...
DICPCG:  Solving for T, Initial residual = 4.72167e-05, Final residual = 2.06835e-09, No Iterations 1
Global Volume-Averaged Solid Fraction (Gs) = 0.257143
DEBUG:  meanT=497.115 meanW=0 meanDTu=5.90499 A=0
GAMG:  Solving for p_rgh, Initial residual = 0.000238845, Final residual = 2.06802e-06, No Iterations 2
time step continuity errors : sum local = 3.14659e-06, global = -3.77947e-19, cumulative = -3.46621e-18
DILUPBiCGStab:  Solving for omega, Initial residual = 2.84896e-05, Final residual = 1.38199e-06, No Iterations 1
DILUPBiCGStab:  Solving for k, Initial residual = 0.000359574, Final residual = 1.77289e-05, No Iterations 1
ExecutionTime = 589.274 s  ClockTime = 25177 s

Courant Number mean: 1.51879 max: 11.9321
Time = 99.1s


[Quantum Interface] Intercepting Solute Solver Call (w)...
[Quantum Interface] Exporting Matrix (Size: 78750)...
[Quantum Interface] Invoking Backend: "python3 ../solute_solver.py A_matrix_w.dat b_vector_w.dat solution_w.dat"
Reading matrix from A_matrix_w.dat...
Matrix shape: (78750, 78750), Non-zeros: 535200
Initializing Quantum Solver (VQLS)...
Running in Classical DIRECT Mode (LU / Spsolve)
Solution calculated. Norm: 0.0
Solution written to solution_w.dat
[Quantum Interface] Importing Solution (w)...
DICPCG:  Solving for T, Initial residual = 4.71372e-05, Final residual = 2.0649e-09, No Iterations 1
Global Volume-Averaged Solid Fraction (Gs) = 0.257143
DEBUG:  meanT=497.116 meanW=0 meanDTu=5.90434 A=0
GAMG:  Solving for p_rgh, Initial residual = 0.000241036, Final residual = 2.02935e-06, No Iterations 2
time step continuity errors : sum local = 3.09368e-06, global = 2.32396e-19, cumulative = -3.23381e-18
DILUPBiCGStab:  Solving for omega, Initial residual = 2.80158e-05, Final residual = 1.35557e-06, No Iterations 1
DILUPBiCGStab:  Solving for k, Initial residual = 0.00035458, Final residual = 1.75082e-05, No Iterations 1
ExecutionTime = 589.779 s  ClockTime = 25193 s

Courant Number mean: 1.51876 max: 11.9403
Time = 99.2s


[Quantum Interface] Intercepting Solute Solver Call (w)...
[Quantum Interface] Exporting Matrix (Size: 78750)...
[Quantum Interface] Invoking Backend: "python3 ../solute_solver.py A_matrix_w.dat b_vector_w.dat solution_w.dat"
Reading matrix from A_matrix_w.dat...
Matrix shape: (78750, 78750), Non-zeros: 535200
Initializing Quantum Solver (VQLS)...
Running in Classical DIRECT Mode (LU / Spsolve)
Solution calculated. Norm: 0.0
Solution written to solution_w.dat
[Quantum Interface] Importing Solution (w)...
DICPCG:  Solving for T, Initial residual = 4.70578e-05, Final residual = 2.06144e-09, No Iterations 1
Global Volume-Averaged Solid Fraction (Gs) = 0.257143
DEBUG:  meanT=497.116 meanW=0 meanDTu=5.9037 A=0
GAMG:  Solving for p_rgh, Initial residual = 0.000238232, Final residual = 1.92337e-06, No Iterations 2
time step continuity errors : sum local = 2.92469e-06, global = -5.8195e-19, cumulative = -3.81576e-18
DILUPBiCGStab:  Solving for omega, Initial residual = 2.81184e-05, Final residual = 1.38721e-06, No Iterations 1
DILUPBiCGStab:  Solving for k, Initial residual = 0.00036168, Final residual = 1.78629e-05, No Iterations 1
ExecutionTime = 590.277 s  ClockTime = 25208 s

Courant Number mean: 1.51874 max: 11.9452
Time = 99.3s


[Quantum Interface] Intercepting Solute Solver Call (w)...
[Quantum Interface] Exporting Matrix (Size: 78750)...
[Quantum Interface] Invoking Backend: "python3 ../solute_solver.py A_matrix_w.dat b_vector_w.dat solution_w.dat"
Reading matrix from A_matrix_w.dat...
Matrix shape: (78750, 78750), Non-zeros: 535200
Initializing Quantum Solver (VQLS)...
Running in Classical DIRECT Mode (LU / Spsolve)
Solution calculated. Norm: 0.0
Solution written to solution_w.dat
[Quantum Interface] Importing Solution (w)...
DICPCG:  Solving for T, Initial residual = 4.69786e-05, Final residual = 2.058e-09, No Iterations 1
Global Volume-Averaged Solid Fraction (Gs) = 0.257143
DEBUG:  meanT=497.117 meanW=0 meanDTu=5.90306 A=0
GAMG:  Solving for p_rgh, Initial residual = 0.000236173, Final residual = 1.9224e-06, No Iterations 2
time step continuity errors : sum local = 2.9333e-06, global = 3.98586e-19, cumulative = -3.41718e-18
DILUPBiCGStab:  Solving for omega, Initial residual = 2.76278e-05, Final residual = 1.37321e-06, No Iterations 1
DILUPBiCGStab:  Solving for k, Initial residual = 0.000387259, Final residual = 2.02545e-05, No Iterations 1
ExecutionTime = 590.772 s  ClockTime = 25224 s

Courant Number mean: 1.51872 max: 11.9478
Time = 99.4s


[Quantum Interface] Intercepting Solute Solver Call (w)...
[Quantum Interface] Exporting Matrix (Size: 78750)...
[Quantum Interface] Invoking Backend: "python3 ../solute_solver.py A_matrix_w.dat b_vector_w.dat solution_w.dat"
Reading matrix from A_matrix_w.dat...
Matrix shape: (78750, 78750), Non-zeros: 535200
Initializing Quantum Solver (VQLS)...
Running in Classical DIRECT Mode (LU / Spsolve)
Solution calculated. Norm: 0.0
Solution written to solution_w.dat
[Quantum Interface] Importing Solution (w)...
DICPCG:  Solving for T, Initial residual = 4.68995e-05, Final residual = 2.05456e-09, No Iterations 1
Global Volume-Averaged Solid Fraction (Gs) = 0.257143
DEBUG:  meanT=497.118 meanW=0 meanDTu=5.90241 A=0
GAMG:  Solving for p_rgh, Initial residual = 0.000233484, Final residual = 1.90354e-06, No Iterations 2
time step continuity errors : sum local = 2.90993e-06, global = -2.27303e-19, cumulative = -3.64448e-18
DILUPBiCGStab:  Solving for omega, Initial residual = 2.71634e-05, Final residual = 1.35016e-06, No Iterations 1
DILUPBiCGStab:  Solving for k, Initial residual = 0.000372661, Final residual = 1.86523e-05, No Iterations 1
ExecutionTime = 591.272 s  ClockTime = 25239 s

Courant Number mean: 1.5187 max: 11.9517
Time = 99.5s


[Quantum Interface] Intercepting Solute Solver Call (w)...
[Quantum Interface] Exporting Matrix (Size: 78750)...
[Quantum Interface] Invoking Backend: "python3 ../solute_solver.py A_matrix_w.dat b_vector_w.dat solution_w.dat"
Reading matrix from A_matrix_w.dat...
Matrix shape: (78750, 78750), Non-zeros: 535200
Initializing Quantum Solver (VQLS)...
Running in Classical DIRECT Mode (LU / Spsolve)
Solution calculated. Norm: 0.0
Solution written to solution_w.dat
[Quantum Interface] Importing Solution (w)...
DICPCG:  Solving for T, Initial residual = 4.68205e-05, Final residual = 2.05113e-09, No Iterations 1
Global Volume-Averaged Solid Fraction (Gs) = 0.257143
DEBUG:  meanT=497.118 meanW=0 meanDTu=5.90177 A=0
GAMG:  Solving for p_rgh, Initial residual = 0.000227558, Final residual = 1.83304e-06, No Iterations 2
time step continuity errors : sum local = 2.83618e-06, global = 1.29117e-20, cumulative = -3.63157e-18
DILUPBiCGStab:  Solving for omega, Initial residual = 2.67941e-05, Final residual = 1.28768e-06, No Iterations 1
DILUPBiCGStab:  Solving for k, Initial residual = 0.000356751, Final residual = 1.80356e-05, No Iterations 1
ExecutionTime = 591.764 s  ClockTime = 25255 s

Courant Number mean: 1.51868 max: 11.9526
Time = 99.6s


[Quantum Interface] Intercepting Solute Solver Call (w)...
[Quantum Interface] Exporting Matrix (Size: 78750)...
[Quantum Interface] Invoking Backend: "python3 ../solute_solver.py A_matrix_w.dat b_vector_w.dat solution_w.dat"
Reading matrix from A_matrix_w.dat...
Matrix shape: (78750, 78750), Non-zeros: 535200
Initializing Quantum Solver (VQLS)...
Running in Classical DIRECT Mode (LU / Spsolve)
Solution calculated. Norm: 0.0
Solution written to solution_w.dat
[Quantum Interface] Importing Solution (w)...
DICPCG:  Solving for T, Initial residual = 4.67417e-05, Final residual = 2.0477e-09, No Iterations 1
Global Volume-Averaged Solid Fraction (Gs) = 0.257143
DEBUG:  meanT=497.119 meanW=0 meanDTu=5.90113 A=0
GAMG:  Solving for p_rgh, Initial residual = 0.00023774, Final residual = 2.00374e-06, No Iterations 2
time step continuity errors : sum local = 3.13085e-06, global = 1.42636e-20, cumulative = -3.6173e-18
DILUPBiCGStab:  Solving for omega, Initial residual = 2.65166e-05, Final residual = 1.32973e-06, No Iterations 1
DILUPBiCGStab:  Solving for k, Initial residual = 0.000351209, Final residual = 1.71726e-05, No Iterations 1
ExecutionTime = 592.271 s  ClockTime = 25271 s

Courant Number mean: 1.51865 max: 11.9481
Time = 99.7s


[Quantum Interface] Intercepting Solute Solver Call (w)...
[Quantum Interface] Exporting Matrix (Size: 78750)...
[Quantum Interface] Invoking Backend: "python3 ../solute_solver.py A_matrix_w.dat b_vector_w.dat solution_w.dat"
Reading matrix from A_matrix_w.dat...
Matrix shape: (78750, 78750), Non-zeros: 535200
Initializing Quantum Solver (VQLS)...
Running in Classical DIRECT Mode (LU / Spsolve)
Solution calculated. Norm: 0.0
Solution written to solution_w.dat
[Quantum Interface] Importing Solution (w)...
DICPCG:  Solving for T, Initial residual = 4.6663e-05, Final residual = 2.04428e-09, No Iterations 1
Global Volume-Averaged Solid Fraction (Gs) = 0.257143
DEBUG:  meanT=497.12 meanW=0 meanDTu=5.90049 A=0
GAMG:  Solving for p_rgh, Initial residual = 0.000236296, Final residual = 2.00486e-06, No Iterations 2
time step continuity errors : sum local = 3.07959e-06, global = 2.16704e-19, cumulative = -3.4006e-18
DILUPBiCGStab:  Solving for omega, Initial residual = 2.63155e-05, Final residual = 1.37908e-06, No Iterations 1
DILUPBiCGStab:  Solving for k, Initial residual = 0.00035482, Final residual = 1.75308e-05, No Iterations 1
ExecutionTime = 592.796 s  ClockTime = 25287 s

Courant Number mean: 1.51864 max: 11.9524
Time = 99.8s


[Quantum Interface] Intercepting Solute Solver Call (w)...
[Quantum Interface] Exporting Matrix (Size: 78750)...
[Quantum Interface] Invoking Backend: "python3 ../solute_solver.py A_matrix_w.dat b_vector_w.dat solution_w.dat"
Reading matrix from A_matrix_w.dat...
Matrix shape: (78750, 78750), Non-zeros: 535200
Initializing Quantum Solver (VQLS)...
Running in Classical DIRECT Mode (LU / Spsolve)
Solution calculated. Norm: 0.0
Solution written to solution_w.dat
[Quantum Interface] Importing Solution (w)...
DICPCG:  Solving for T, Initial residual = 4.65844e-05, Final residual = 2.04087e-09, No Iterations 1
Global Volume-Averaged Solid Fraction (Gs) = 0.257143
DEBUG:  meanT=497.12 meanW=0 meanDTu=5.89985 A=0
GAMG:  Solving for p_rgh, Initial residual = 0.000234908, Final residual = 1.94011e-06, No Iterations 2
time step continuity errors : sum local = 3.05352e-06, global = -3.13615e-20, cumulative = -3.43196e-18
DILUPBiCGStab:  Solving for omega, Initial residual = 2.61258e-05, Final residual = 1.39773e-06, No Iterations 1
DILUPBiCGStab:  Solving for k, Initial residual = 0.000367939, Final residual = 1.87251e-05, No Iterations 1
ExecutionTime = 593.318 s  ClockTime = 25302 s

Courant Number mean: 1.51863 max: 11.9517
Time = 99.9s


[Quantum Interface] Intercepting Solute Solver Call (w)...
[Quantum Interface] Exporting Matrix (Size: 78750)...
[Quantum Interface] Invoking Backend: "python3 ../solute_solver.py A_matrix_w.dat b_vector_w.dat solution_w.dat"
Reading matrix from A_matrix_w.dat...
Matrix shape: (78750, 78750), Non-zeros: 535200
Initializing Quantum Solver (VQLS)...
Running in Classical DIRECT Mode (LU / Spsolve)
Solution calculated. Norm: 0.0
Solution written to solution_w.dat
[Quantum Interface] Importing Solution (w)...
DICPCG:  Solving for T, Initial residual = 4.6506e-05, Final residual = 2.03746e-09, No Iterations 1
Global Volume-Averaged Solid Fraction (Gs) = 0.257143
DEBUG:  meanT=497.121 meanW=0 meanDTu=5.89921 A=0
GAMG:  Solving for p_rgh, Initial residual = 0.000234055, Final residual = 1.80614e-06, No Iterations 2
time step continuity errors : sum local = 2.87632e-06, global = -1.19977e-19, cumulative = -3.55194e-18
DILUPBiCGStab:  Solving for omega, Initial residual = 2.5808e-05, Final residual = 1.26925e-06, No Iterations 1
DILUPBiCGStab:  Solving for k, Initial residual = 0.000367537, Final residual = 1.79581e-05, No Iterations 1
ExecutionTime = 593.82 s  ClockTime = 25318 s

Courant Number mean: 1.51864 max: 11.9483
Time = 100s


[Quantum Interface] Intercepting Solute Solver Call (w)...
[Quantum Interface] Exporting Matrix (Size: 78750)...
[Quantum Interface] Invoking Backend: "python3 ../solute_solver.py A_matrix_w.dat b_vector_w.dat solution_w.dat"
Reading matrix from A_matrix_w.dat...
Matrix shape: (78750, 78750), Non-zeros: 535200
Initializing Quantum Solver (VQLS)...
Running in Classical DIRECT Mode (LU / Spsolve)
Solution calculated. Norm: 0.0
Solution written to solution_w.dat
[Quantum Interface] Importing Solution (w)...
DICPCG:  Solving for T, Initial residual = 4.64277e-05, Final residual = 2.03405e-09, No Iterations 1
Global Volume-Averaged Solid Fraction (Gs) = 0.257143
DEBUG:  meanT=497.121 meanW=0 meanDTu=5.89858 A=0
GAMG:  Solving for p_rgh, Initial residual = 0.00023371, Final residual = 1.75369e-06, No Iterations 2
time step continuity errors : sum local = 2.75475e-06, global = -1.21375e-19, cumulative = -3.67331e-18
DILUPBiCGStab:  Solving for omega, Initial residual = 2.5669e-05, Final residual = 1.30044e-06, No Iterations 1
DILUPBiCGStab:  Solving for k, Initial residual = 0.000361699, Final residual = 1.84538e-05, No Iterations 1
ExecutionTime = 594.523 s  ClockTime = 25334 s

End

