/*---------------------------------------------------------------------------*\
  =========                 |
  \\      /  F ield         | OpenFOAM: The Open Source CFD Toolbox
   \\    /   O peration     | Website:  https://openfoam.org
    \\  /    A nd           | Version:  13
     \\/     M anipulation  |
\*---------------------------------------------------------------------------*/
Build  : 13-cde978a97c93
Exec   : teseLB_diffusive_enthalpy
Date   : Jan 16 2026
Time   : 18:49:13
Host   : "leonardomaximinobernardo"
PID    : 34816
I/O    : uncollated
Case   : /home/leonardomaximinobernardo/My_projects/teseLB_quantico/teseLB/validationCase_diffusive_enthalpy
nProcs : 1
sigFpe : Enabling floating point exception trapping (FOAM_SIGFPE).
fileModificationChecking : Monitoring run-time modified files using timeStampMaster (fileModificationSkew 10)
allowSystemOperations : Allowing user-supplied system call operations

// * * * * * * * * * * * * * * * * * * * * * * * * * * * * * * * * * * * * * //
Create time

Create mesh for time = 0


PIMPLE: Convergence criteria found
        p_rgh: tolerance 0.0001
        U: tolerance 0.0001
        h: tolerance 0.0001
        "(k|epsilon|omega)": tolerance 0.001


PIMPLE: Operating solver in steady-state mode with 1 outer corrector
PIMPLE: Operating solver in SIMPLE mode


Reading thermophysical properties

Reading field p_rgh

Reading field U

Reading/calculating face flux field phi

Reading field T

Reading field w

Creating viscosity model

Creating turbulence model

Selecting turbulence model type RAS
    Selecting RAS turbulence model kOmegaSST
Reading field alphat

Reading field difft


Reading g
No MRF models present

Courant Number mean: 0 max: 0
Selecting patchDistMethod meshWave

 Starting time loop

Courant Number mean: 0 max: 0
Time = 0.1s

DICPCG:  Solving for w, Initial residual = 0.47735, Final residual = 0.000435902, No Iterations 1
DICPCG:  Solving for T, Initial residual = 0.471566, Final residual = 0.000407598, No Iterations 1
Global Volume-Averaged Solid Fraction (Gs) = 0.0232283
GAMG:  Solving for p_rgh, Initial residual = 0.999999, Final residual = 0.00244801, No Iterations 1
time step continuity errors : sum local = 4.61665e-17, global = -1.2509e-34, cumulative = -1.2509e-34
DILUPBiCGStab:  Solving for omega, Initial residual = 0.138111, Final residual = 0.00106755, No Iterations 1
DILUPBiCGStab:  Solving for k, Initial residual = 1, Final residual = 0.0169348, No Iterations 1
ExecutionTime = 0.32458 s  ClockTime = 0 s

Courant Number mean: 1.9259e-16 max: 1.57363e-15
Time = 0.2s

DICPCG:  Solving for w, Initial residual = 0.238351, Final residual = 0.000253759, No Iterations 1
DICPCG:  Solving for T, Initial residual = 0.302822, Final residual = 0.000292821, No Iterations 1
Global Volume-Averaged Solid Fraction (Gs) = 0.0232283
GAMG:  Solving for p_rgh, Initial residual = 0.483246, Final residual = 0.00146245, No Iterations 1
time step continuity errors : sum local = 2.647e-15, global = -2.6574e-32, cumulative = -2.66991e-32
DILUPBiCGStab:  Solving for omega, Initial residual = 0.0147491, Final residual = 8.99533e-06, No Iterations 1
DILUPBiCGStab:  Solving for k, Initial residual = 0.434035, Final residual = 0.000767473, No Iterations 1
ExecutionTime = 0.401293 s  ClockTime = 1 s

Courant Number mean: 4.87731e-15 max: 1.12321e-13
Time = 0.3s

DICPCG:  Solving for w, Initial residual = 0.125011, Final residual = 0.000153399, No Iterations 1
DICPCG:  Solving for T, Initial residual = 0.210624, Final residual = 0.000238071, No Iterations 1
Global Volume-Averaged Solid Fraction (Gs) = 0.0232283
GAMG:  Solving for p_rgh, Initial residual = 0.365434, Final residual = 0.00130516, No Iterations 1
time step continuity errors : sum local = 2.79758e-15, global = -6.1538e-32, cumulative = -8.82372e-32
DILUPBiCGStab:  Solving for omega, Initial residual = 0.00123048, Final residual = 4.94174e-06, No Iterations 1
DILUPBiCGStab:  Solving for k, Initial residual = 0.0284451, Final residual = 0.000116234, No Iterations 1
ExecutionTime = 0.474421 s  ClockTime = 1 s

Courant Number mean: 7.8161e-15 max: 2.07815e-13
Time = 0.4s

DICPCG:  Solving for w, Initial residual = 0.0804451, Final residual = 0.000108504, No Iterations 1
DICPCG:  Solving for T, Initial residual = 0.14158, Final residual = 0.000175996, No Iterations 1
Global Volume-Averaged Solid Fraction (Gs) = 0.0232283
GAMG:  Solving for p_rgh, Initial residual = 0.236512, Final residual = 0.0010202, No Iterations 1
time step continuity errors : sum local = 2.64973e-15, global = -1.03348e-31, cumulative = -1.91585e-31
DILUPBiCGStab:  Solving for omega, Initial residual = 0.000342885, Final residual = 2.89296e-06, No Iterations 1
DILUPBiCGStab:  Solving for k, Initial residual = 0.00975937, Final residual = 8.02679e-05, No Iterations 1
ExecutionTime = 0.545553 s  ClockTime = 1 s

Courant Number mean: 9.04536e-15 max: 1.72242e-13
Time = 0.5s

DICPCG:  Solving for w, Initial residual = 0.0573918, Final residual = 8.23565e-05, No Iterations 1
DICPCG:  Solving for T, Initial residual = 0.101729, Final residual = 0.000132923, No Iterations 1
Global Volume-Averaged Solid Fraction (Gs) = 0.0232283
GAMG:  Solving for p_rgh, Initial residual = 0.17465, Final residual = 0.000869306, No Iterations 1
time step continuity errors : sum local = 2.53004e-15, global = 1.42902e-31, cumulative = -4.86835e-32
DILUPBiCGStab:  Solving for omega, Initial residual = 0.000221688, Final residual = 2.00387e-06, No Iterations 1
DILUPBiCGStab:  Solving for k, Initial residual = 0.00513165, Final residual = 6.00578e-05, No Iterations 1
ExecutionTime = 0.61814 s  ClockTime = 1 s

Courant Number mean: 9.27619e-15 max: 2.11124e-13
Time = 0.6s

DICPCG:  Solving for w, Initial residual = 0.0441081, Final residual = 6.55683e-05, No Iterations 1
DICPCG:  Solving for T, Initial residual = 0.0818132, Final residual = 0.000109481, No Iterations 1
Global Volume-Averaged Solid Fraction (Gs) = 0.0232283
GAMG:  Solving for p_rgh, Initial residual = 0.144127, Final residual = 0.00078084, No Iterations 1
time step continuity errors : sum local = 2.4251e-15, global = -9.26319e-32, cumulative = -1.41315e-31
DILUPBiCGStab:  Solving for omega, Initial residual = 0.000157716, Final residual = 1.42283e-06, No Iterations 1
DILUPBiCGStab:  Solving for k, Initial residual = 0.00365707, Final residual = 3.51103e-05, No Iterations 1
ExecutionTime = 0.692452 s  ClockTime = 1 s

Courant Number mean: 8.73088e-15 max: 1.67093e-13
Time = 0.7s

DICPCG:  Solving for w, Initial residual = 0.0347958, Final residual = 5.30693e-05, No Iterations 1
DICPCG:  Solving for T, Initial residual = 0.0695635, Final residual = 9.43136e-05, No Iterations 1
Global Volume-Averaged Solid Fraction (Gs) = 0.0232283
GAMG:  Solving for p_rgh, Initial residual = 0.131317, Final residual = 0.000744972, No Iterations 1
time step continuity errors : sum local = 2.36939e-15, global = 2.79237e-31, cumulative = 1.37922e-31
DILUPBiCGStab:  Solving for omega, Initial residual = 0.000132465, Final residual = 1.06243e-06, No Iterations 1
DILUPBiCGStab:  Solving for k, Initial residual = 0.00315214, Final residual = 2.50287e-05, No Iterations 1
ExecutionTime = 0.765294 s  ClockTime = 1 s

Courant Number mean: 8.44581e-15 max: 1.56737e-13
Time = 0.8s

DICPCG:  Solving for w, Initial residual = 0.0291198, Final residual = 4.50067e-05, No Iterations 1
DICPCG:  Solving for T, Initial residual = 0.0615525, Final residual = 8.36921e-05, No Iterations 1
Global Volume-Averaged Solid Fraction (Gs) = 0.0232283
GAMG:  Solving for p_rgh, Initial residual = 0.122299, Final residual = 0.000740883, No Iterations 1
time step continuity errors : sum local = 2.39863e-15, global = 2.19683e-31, cumulative = 3.57605e-31
DILUPBiCGStab:  Solving for omega, Initial residual = 0.000115505, Final residual = 7.7156e-07, No Iterations 1
DILUPBiCGStab:  Solving for k, Initial residual = 0.00298344, Final residual = 2.0702e-05, No Iterations 1
ExecutionTime = 0.83898 s  ClockTime = 1 s

Courant Number mean: 8.56807e-15 max: 2.34054e-13
Time = 0.9s

DICPCG:  Solving for w, Initial residual = 0.024484, Final residual = 3.83097e-05, No Iterations 1
DICPCG:  Solving for T, Initial residual = 0.0552661, Final residual = 7.56172e-05, No Iterations 1
Global Volume-Averaged Solid Fraction (Gs) = 0.0232283
GAMG:  Solving for p_rgh, Initial residual = 0.116603, Final residual = 0.000730116, No Iterations 1
time step continuity errors : sum local = 2.37442e-15, global = 4.57319e-31, cumulative = 8.14924e-31
DILUPBiCGStab:  Solving for omega, Initial residual = 0.000104909, Final residual = 5.56889e-07, No Iterations 1
DILUPBiCGStab:  Solving for k, Initial residual = 0.00293458, Final residual = 1.82113e-05, No Iterations 1
ExecutionTime = 0.910151 s  ClockTime = 1 s

Courant Number mean: 8.64907e-15 max: 1.76915e-13
Time = 1s

DICPCG:  Solving for w, Initial residual = 0.0215577, Final residual = 3.38453e-05, No Iterations 1
DICPCG:  Solving for T, Initial residual = 0.0509562, Final residual = 6.95206e-05, No Iterations 1
Global Volume-Averaged Solid Fraction (Gs) = 0.0232283
GAMG:  Solving for p_rgh, Initial residual = 0.10999, Final residual = 0.000707911, No Iterations 1
time step continuity errors : sum local = 2.37114e-15, global = -2.46753e-31, cumulative = 5.68171e-31
DILUPBiCGStab:  Solving for omega, Initial residual = 9.95686e-05, Final residual = 4.15509e-07, No Iterations 1
DILUPBiCGStab:  Solving for k, Initial residual = 0.00293467, Final residual = 1.65468e-05, No Iterations 1
ExecutionTime = 1.18564 s  ClockTime = 1 s

Courant Number mean: 8.72787e-15 max: 2.136e-13
Time = 1.1s

DICPCG:  Solving for w, Initial residual = 0.0191616, Final residual = 3.03099e-05, No Iterations 1
DICPCG:  Solving for T, Initial residual = 0.0466529, Final residual = 6.39349e-05, No Iterations 1
Global Volume-Averaged Solid Fraction (Gs) = 0.0232283
GAMG:  Solving for p_rgh, Initial residual = 0.105127, Final residual = 0.000693892, No Iterations 1
time step continuity errors : sum local = 2.34828e-15, global = -1.88393e-31, cumulative = 3.79777e-31
DILUPBiCGStab:  Solving for omega, Initial residual = 9.71823e-05, Final residual = 3.3626e-07, No Iterations 1
DILUPBiCGStab:  Solving for k, Initial residual = 0.00296841, Final residual = 1.57053e-05, No Iterations 1
ExecutionTime = 1.25552 s  ClockTime = 1 s

Courant Number mean: 8.82816e-15 max: 3.04806e-13
Time = 1.2s

DICPCG:  Solving for w, Initial residual = 0.0173655, Final residual = 2.7528e-05, No Iterations 1
DICPCG:  Solving for T, Initial residual = 0.0435854, Final residual = 6e-05, No Iterations 1
Global Volume-Averaged Solid Fraction (Gs) = 0.0232283
GAMG:  Solving for p_rgh, Initial residual = 0.0996568, Final residual = 0.000689136, No Iterations 1
time step continuity errors : sum local = 2.39052e-15, global = -1.32451e-32, cumulative = 3.66532e-31
DILUPBiCGStab:  Solving for omega, Initial residual = 9.58426e-05, Final residual = 2.94643e-07, No Iterations 1
DILUPBiCGStab:  Solving for k, Initial residual = 0.00301526, Final residual = 1.47698e-05, No Iterations 1
ExecutionTime = 1.33023 s  ClockTime = 1 s

Courant Number mean: 8.95085e-15 max: 3.60331e-13
Time = 1.3s

DICPCG:  Solving for w, Initial residual = 0.0155194, Final residual = 2.47895e-05, No Iterations 1
DICPCG:  Solving for T, Initial residual = 0.0408193, Final residual = 5.62405e-05, No Iterations 1
Global Volume-Averaged Solid Fraction (Gs) = 0.0232283
GAMG:  Solving for p_rgh, Initial residual = 0.0968734, Final residual = 0.00066457, No Iterations 1
time step continuity errors : sum local = 2.33129e-15, global = -1.40108e-31, cumulative = 2.26425e-31
DILUPBiCGStab:  Solving for omega, Initial residual = 9.58965e-05, Final residual = 2.88541e-07, No Iterations 1
DILUPBiCGStab:  Solving for k, Initial residual = 0.0030706, Final residual = 1.41447e-05, No Iterations 1
ExecutionTime = 1.4087 s  ClockTime = 2 s

Courant Number mean: 8.77225e-15 max: 3.13808e-13
Time = 1.4s

DICPCG:  Solving for w, Initial residual = 0.0144194, Final residual = 2.30733e-05, No Iterations 1
DICPCG:  Solving for T, Initial residual = 0.0383694, Final residual = 5.28139e-05, No Iterations 1
Global Volume-Averaged Solid Fraction (Gs) = 0.0232283
GAMG:  Solving for p_rgh, Initial residual = 0.0952801, Final residual = 0.000648984, No Iterations 1
time step continuity errors : sum local = 2.3037e-15, global = -1.97e-32, cumulative = 2.06725e-31
DILUPBiCGStab:  Solving for omega, Initial residual = 9.59573e-05, Final residual = 2.86012e-07, No Iterations 1
DILUPBiCGStab:  Solving for k, Initial residual = 0.00312783, Final residual = 1.3632e-05, No Iterations 1
ExecutionTime = 1.47711 s  ClockTime = 2 s

Courant Number mean: 8.54594e-15 max: 2.96643e-13
Time = 1.5s

DICPCG:  Solving for w, Initial residual = 0.0134388, Final residual = 2.15629e-05, No Iterations 1
DICPCG:  Solving for T, Initial residual = 0.0360675, Final residual = 5.00935e-05, No Iterations 1
Global Volume-Averaged Solid Fraction (Gs) = 0.0232283
GAMG:  Solving for p_rgh, Initial residual = 0.092592, Final residual = 0.000629606, No Iterations 1
time step continuity errors : sum local = 2.27558e-15, global = -1.70845e-31, cumulative = 3.58798e-32
DILUPBiCGStab:  Solving for omega, Initial residual = 9.56911e-05, Final residual = 2.80518e-07, No Iterations 1
DILUPBiCGStab:  Solving for k, Initial residual = 0.00319163, Final residual = 1.33682e-05, No Iterations 1
ExecutionTime = 1.54409 s  ClockTime = 2 s

Courant Number mean: 8.55894e-15 max: 3.4045e-13
Time = 1.6s

DICPCG:  Solving for w, Initial residual = 0.0124237, Final residual = 1.99725e-05, No Iterations 1
DICPCG:  Solving for T, Initial residual = 0.0341428, Final residual = 4.73571e-05, No Iterations 1
Global Volume-Averaged Solid Fraction (Gs) = 0.0232283
GAMG:  Solving for p_rgh, Initial residual = 0.0898276, Final residual = 0.000620681, No Iterations 1
time step continuity errors : sum local = 2.27502e-15, global = -1.35804e-32, cumulative = 2.22994e-32
DILUPBiCGStab:  Solving for omega, Initial residual = 9.51561e-05, Final residual = 2.73507e-07, No Iterations 1
DILUPBiCGStab:  Solving for k, Initial residual = 0.00326061, Final residual = 1.2854e-05, No Iterations 1
ExecutionTime = 1.61336 s  ClockTime = 2 s

Courant Number mean: 8.63829e-15 max: 3.0903e-13
Time = 1.7s

DICPCG:  Solving for w, Initial residual = 0.0112861, Final residual = 1.82013e-05, No Iterations 1
DICPCG:  Solving for T, Initial residual = 0.031959, Final residual = 4.46963e-05, No Iterations 1
Global Volume-Averaged Solid Fraction (Gs) = 0.0232283
GAMG:  Solving for p_rgh, Initial residual = 0.0867214, Final residual = 0.000617817, No Iterations 1
time step continuity errors : sum local = 2.30309e-15, global = 8.74624e-32, cumulative = 1.09762e-31
DILUPBiCGStab:  Solving for omega, Initial residual = 9.44135e-05, Final residual = 2.65437e-07, No Iterations 1
DILUPBiCGStab:  Solving for k, Initial residual = 0.00333248, Final residual = 1.25364e-05, No Iterations 1
ExecutionTime = 1.68375 s  ClockTime = 2 s

Courant Number mean: 8.89595e-15 max: 3.04422e-13
Time = 1.8s

DICPCG:  Solving for w, Initial residual = 0.0107131, Final residual = 1.73119e-05, No Iterations 1
DICPCG:  Solving for T, Initial residual = 0.0302685, Final residual = 4.22343e-05, No Iterations 1
Global Volume-Averaged Solid Fraction (Gs) = 0.0232283
GAMG:  Solving for p_rgh, Initial residual = 0.0846959, Final residual = 0.000606794, No Iterations 1
time step continuity errors : sum local = 2.27626e-15, global = 2.15135e-31, cumulative = 3.24897e-31
DILUPBiCGStab:  Solving for omega, Initial residual = 9.35183e-05, Final residual = 2.57179e-07, No Iterations 1
DILUPBiCGStab:  Solving for k, Initial residual = 0.00340471, Final residual = 1.22186e-05, No Iterations 1
ExecutionTime = 1.75925 s  ClockTime = 2 s

Courant Number mean: 9.07667e-15 max: 3.19194e-13
Time = 1.9s

DICPCG:  Solving for w, Initial residual = 0.0100472, Final residual = 1.62481e-05, No Iterations 1
DICPCG:  Solving for T, Initial residual = 0.0289232, Final residual = 4.0509e-05, No Iterations 1
Global Volume-Averaged Solid Fraction (Gs) = 0.0232283
GAMG:  Solving for p_rgh, Initial residual = 0.0837424, Final residual = 0.00060897, No Iterations 1
time step continuity errors : sum local = 2.31789e-15, global = 2.094e-33, cumulative = 3.26991e-31
DILUPBiCGStab:  Solving for omega, Initial residual = 9.25074e-05, Final residual = 2.4846e-07, No Iterations 1
DILUPBiCGStab:  Solving for k, Initial residual = 0.00348171, Final residual = 1.20738e-05, No Iterations 1
ExecutionTime = 1.85243 s  ClockTime = 2 s

Courant Number mean: 9.35003e-15 max: 3.78928e-13
Time = 2s

DICPCG:  Solving for w, Initial residual = 0.00950903, Final residual = 1.53675e-05, No Iterations 1
DICPCG:  Solving for T, Initial residual = 0.0274425, Final residual = 3.83958e-05, No Iterations 1
Global Volume-Averaged Solid Fraction (Gs) = 0.0232283
GAMG:  Solving for p_rgh, Initial residual = 0.0825398, Final residual = 0.000596879, No Iterations 1
time step continuity errors : sum local = 2.30915e-15, global = 1.50894e-33, cumulative = 3.285e-31
DILUPBiCGStab:  Solving for omega, Initial residual = 9.14364e-05, Final residual = 2.39944e-07, No Iterations 1
DILUPBiCGStab:  Solving for k, Initial residual = 0.00356224, Final residual = 1.16256e-05, No Iterations 1
ExecutionTime = 2.1396 s  ClockTime = 2 s

Courant Number mean: 9.39797e-15 max: 5.11835e-13
Time = 2.1s

DICPCG:  Solving for w, Initial residual = 0.00881002, Final residual = 1.42124e-05, No Iterations 1
DICPCG:  Solving for T, Initial residual = 0.0262209, Final residual = 3.69319e-05, No Iterations 1
Global Volume-Averaged Solid Fraction (Gs) = 0.0232283
GAMG:  Solving for p_rgh, Initial residual = 0.0810145, Final residual = 0.000591564, No Iterations 1
time step continuity errors : sum local = 2.2981e-15, global = 4.03068e-31, cumulative = 7.31567e-31
DILUPBiCGStab:  Solving for omega, Initial residual = 9.02923e-05, Final residual = 2.32132e-07, No Iterations 1
DILUPBiCGStab:  Solving for k, Initial residual = 0.00364297, Final residual = 1.13653e-05, No Iterations 1
ExecutionTime = 2.21258 s  ClockTime = 2 s

Courant Number mean: 9.55673e-15 max: 5.18723e-13
Time = 2.2s

DICPCG:  Solving for w, Initial residual = 0.00835805, Final residual = 1.34657e-05, No Iterations 1
DICPCG:  Solving for T, Initial residual = 0.0252276, Final residual = 3.53194e-05, No Iterations 1
Global Volume-Averaged Solid Fraction (Gs) = 0.0232283
GAMG:  Solving for p_rgh, Initial residual = 0.0804763, Final residual = 0.000596402, No Iterations 1
time step continuity errors : sum local = 2.347e-15, global = 5.87982e-31, cumulative = 1.31955e-30
DILUPBiCGStab:  Solving for omega, Initial residual = 8.90877e-05, Final residual = 2.24108e-07, No Iterations 1
DILUPBiCGStab:  Solving for k, Initial residual = 0.00372873, Final residual = 1.12727e-05, No Iterations 1
ExecutionTime = 2.28484 s  ClockTime = 2 s

Courant Number mean: 9.77139e-15 max: 5.16588e-13
Time = 2.3s

DICPCG:  Solving for w, Initial residual = 0.00803294, Final residual = 1.30017e-05, No Iterations 1
DICPCG:  Solving for T, Initial residual = 0.0243766, Final residual = 3.41353e-05, No Iterations 1
Global Volume-Averaged Solid Fraction (Gs) = 0.0232283
GAMG:  Solving for p_rgh, Initial residual = 0.0787948, Final residual = 0.000582388, No Iterations 1
time step continuity errors : sum local = 2.31831e-15, global = -7.83808e-32, cumulative = 1.24117e-30
DILUPBiCGStab:  Solving for omega, Initial residual = 8.78564e-05, Final residual = 2.16335e-07, No Iterations 1
DILUPBiCGStab:  Solving for k, Initial residual = 0.00381732, Final residual = 1.0905e-05, No Iterations 1
ExecutionTime = 2.35461 s  ClockTime = 2 s

Courant Number mean: 1.00345e-14 max: 5.34336e-13
Time = 2.4s

DICPCG:  Solving for w, Initial residual = 0.00778569, Final residual = 1.25398e-05, No Iterations 1
DICPCG:  Solving for T, Initial residual = 0.0234597, Final residual = 3.28476e-05, No Iterations 1
Global Volume-Averaged Solid Fraction (Gs) = 0.0232283
GAMG:  Solving for p_rgh, Initial residual = 0.0787633, Final residual = 0.000589945, No Iterations 1
time step continuity errors : sum local = 2.35918e-15, global = 8.80772e-32, cumulative = 1.32925e-30
DILUPBiCGStab:  Solving for omega, Initial residual = 8.65726e-05, Final residual = 2.08687e-07, No Iterations 1
DILUPBiCGStab:  Solving for k, Initial residual = 0.00390519, Final residual = 1.06887e-05, No Iterations 1
ExecutionTime = 2.42454 s  ClockTime = 3 s

Courant Number mean: 1.03212e-14 max: 4.01275e-13
Time = 2.5s

DICPCG:  Solving for w, Initial residual = 0.0073006, Final residual = 1.17685e-05, No Iterations 1
DICPCG:  Solving for T, Initial residual = 0.0228128, Final residual = 3.19319e-05, No Iterations 1
Global Volume-Averaged Solid Fraction (Gs) = 0.0232283
GAMG:  Solving for p_rgh, Initial residual = 0.0787865, Final residual = 0.000572767, No Iterations 1
time step continuity errors : sum local = 2.33654e-15, global = 1.15126e-31, cumulative = 1.44437e-30
DILUPBiCGStab:  Solving for omega, Initial residual = 8.52506e-05, Final residual = 2.01669e-07, No Iterations 1
DILUPBiCGStab:  Solving for k, Initial residual = 0.00399792, Final residual = 1.06292e-05, No Iterations 1
ExecutionTime = 2.49537 s  ClockTime = 3 s

Courant Number mean: 1.07837e-14 max: 4.69521e-13
Time = 2.6s

DICPCG:  Solving for w, Initial residual = 0.00704937, Final residual = 1.13373e-05, No Iterations 1
DICPCG:  Solving for T, Initial residual = 0.0222556, Final residual = 3.11464e-05, No Iterations 1
Global Volume-Averaged Solid Fraction (Gs) = 0.0232283
GAMG:  Solving for p_rgh, Initial residual = 0.0773621, Final residual = 0.000582357, No Iterations 1
time step continuity errors : sum local = 2.38228e-15, global = 1.38906e-31, cumulative = 1.58328e-30
DILUPBiCGStab:  Solving for omega, Initial residual = 8.3915e-05, Final residual = 1.94749e-07, No Iterations 1
DILUPBiCGStab:  Solving for k, Initial residual = 0.00409312, Final residual = 1.03119e-05, No Iterations 1
ExecutionTime = 2.56566 s  ClockTime = 3 s

Courant Number mean: 1.12162e-14 max: 4.51508e-13
Time = 2.7s

DICPCG:  Solving for w, Initial residual = 0.00650088, Final residual = 1.0497e-05, No Iterations 1
DICPCG:  Solving for T, Initial residual = 0.021679, Final residual = 3.0481e-05, No Iterations 1
Global Volume-Averaged Solid Fraction (Gs) = 0.0232283
GAMG:  Solving for p_rgh, Initial residual = 0.0759639, Final residual = 0.000566662, No Iterations 1
time step continuity errors : sum local = 2.33114e-15, global = 1.7948e-31, cumulative = 1.76276e-30
DILUPBiCGStab:  Solving for omega, Initial residual = 8.25348e-05, Final residual = 1.87942e-07, No Iterations 1
DILUPBiCGStab:  Solving for k, Initial residual = 0.00418673, Final residual = 1.01392e-05, No Iterations 1
ExecutionTime = 2.64238 s  ClockTime = 3 s

Courant Number mean: 1.15382e-14 max: 4.0353e-13
Time = 2.8s

DICPCG:  Solving for w, Initial residual = 0.00631472, Final residual = 1.01792e-05, No Iterations 1
DICPCG:  Solving for T, Initial residual = 0.0212515, Final residual = 2.98793e-05, No Iterations 1
Global Volume-Averaged Solid Fraction (Gs) = 0.0232283
GAMG:  Solving for p_rgh, Initial residual = 0.075458, Final residual = 0.000566419, No Iterations 1
time step continuity errors : sum local = 2.37495e-15, global = -8.79374e-32, cumulative = 1.67482e-30
DILUPBiCGStab:  Solving for omega, Initial residual = 8.11316e-05, Final residual = 1.81544e-07, No Iterations 1
DILUPBiCGStab:  Solving for k, Initial residual = 0.00428531, Final residual = 1.01156e-05, No Iterations 1
ExecutionTime = 2.71886 s  ClockTime = 3 s

Courant Number mean: 1.19164e-14 max: 4.82702e-13
Time = 2.9s

DICPCG:  Solving for w, Initial residual = 0.00603515, Final residual = 9.74953e-06, No Iterations 1
DICPCG:  Solving for T, Initial residual = 0.0207127, Final residual = 2.92821e-05, No Iterations 1
Global Volume-Averaged Solid Fraction (Gs) = 0.0232283
GAMG:  Solving for p_rgh, Initial residual = 0.0745596, Final residual = 0.000556013, No Iterations 1
time step continuity errors : sum local = 2.35077e-15, global = 3.15759e-33, cumulative = 1.67798e-30
DILUPBiCGStab:  Solving for omega, Initial residual = 7.97274e-05, Final residual = 1.75402e-07, No Iterations 1
DILUPBiCGStab:  Solving for k, Initial residual = 0.00438598, Final residual = 9.83562e-06, No Iterations 1
ExecutionTime = 2.79783 s  ClockTime = 3 s

Courant Number mean: 1.24023e-14 max: 4.55614e-13
Time = 3s

DICPCG:  Solving for w, Initial residual = 0.00567592, Final residual = 9.113e-06, No Iterations 1
DICPCG:  Solving for T, Initial residual = 0.0203752, Final residual = 2.86708e-05, No Iterations 1
Global Volume-Averaged Solid Fraction (Gs) = 0.0232283
GAMG:  Solving for p_rgh, Initial residual = 0.074368, Final residual = 0.000562577, No Iterations 1
time step continuity errors : sum local = 2.39811e-15, global = 1.11549e-31, cumulative = 1.78953e-30
DILUPBiCGStab:  Solving for omega, Initial residual = 7.82814e-05, Final residual = 1.69417e-07, No Iterations 1
DILUPBiCGStab:  Solving for k, Initial residual = 0.00448467, Final residual = 9.73539e-06, No Iterations 1
ExecutionTime = 3.08578 s  ClockTime = 3 s

Courant Number mean: 1.27193e-14 max: 5.98053e-13
Time = 3.1s

DICPCG:  Solving for w, Initial residual = 0.00524779, Final residual = 8.47269e-06, No Iterations 1
DICPCG:  Solving for T, Initial residual = 0.0201591, Final residual = 2.82812e-05, No Iterations 1
Global Volume-Averaged Solid Fraction (Gs) = 0.0232283
GAMG:  Solving for p_rgh, Initial residual = 0.074627, Final residual = 0.000551772, No Iterations 1
time step continuity errors : sum local = 2.38484e-15, global = -8.92787e-32, cumulative = 1.70025e-30
DILUPBiCGStab:  Solving for omega, Initial residual = 7.68209e-05, Final residual = 1.6386e-07, No Iterations 1
DILUPBiCGStab:  Solving for k, Initial residual = 0.00458785, Final residual = 9.70825e-06, No Iterations 1
ExecutionTime = 3.15064 s  ClockTime = 3 s

Courant Number mean: 1.32659e-14 max: 6.60531e-13
Time = 3.2s

DICPCG:  Solving for w, Initial residual = 0.00511013, Final residual = 8.25706e-06, No Iterations 1
DICPCG:  Solving for T, Initial residual = 0.0195942, Final residual = 2.75299e-05, No Iterations 1
Global Volume-Averaged Solid Fraction (Gs) = 0.0232283
GAMG:  Solving for p_rgh, Initial residual = 0.0727127, Final residual = 0.000558067, No Iterations 1
time step continuity errors : sum local = 2.43217e-15, global = 3.36157e-31, cumulative = 2.03641e-30
DILUPBiCGStab:  Solving for omega, Initial residual = 7.53564e-05, Final residual = 1.58577e-07, No Iterations 1
DILUPBiCGStab:  Solving for k, Initial residual = 0.0046928, Final residual = 9.46521e-06, No Iterations 1
ExecutionTime = 3.21883 s  ClockTime = 3 s

Courant Number mean: 1.36405e-14 max: 6.97347e-13
Time = 3.3s

DICPCG:  Solving for w, Initial residual = 0.00480832, Final residual = 7.77743e-06, No Iterations 1
DICPCG:  Solving for T, Initial residual = 0.0190014, Final residual = 2.67428e-05, No Iterations 1
Global Volume-Averaged Solid Fraction (Gs) = 0.0232283
GAMG:  Solving for p_rgh, Initial residual = 0.0727241, Final residual = 0.00054827, No Iterations 1
time step continuity errors : sum local = 2.41311e-15, global = -3.61753e-31, cumulative = 1.67465e-30
DILUPBiCGStab:  Solving for omega, Initial residual = 7.38539e-05, Final residual = 1.53489e-07, No Iterations 1
DILUPBiCGStab:  Solving for k, Initial residual = 0.00479528, Final residual = 9.42716e-06, No Iterations 1
ExecutionTime = 3.28654 s  ClockTime = 3 s

Courant Number mean: 1.42314e-14 max: 7.64837e-13
Time = 3.4s

DICPCG:  Solving for w, Initial residual = 0.00466158, Final residual = 7.50285e-06, No Iterations 1
DICPCG:  Solving for T, Initial residual = 0.0186167, Final residual = 2.60018e-05, No Iterations 1
Global Volume-Averaged Solid Fraction (Gs) = 0.0232283
GAMG:  Solving for p_rgh, Initial residual = 0.0721136, Final residual = 0.000551231, No Iterations 1
time step continuity errors : sum local = 2.46098e-15, global = -1.92948e-31, cumulative = 1.4817e-30
DILUPBiCGStab:  Solving for omega, Initial residual = 7.23458e-05, Final residual = 1.48631e-07, No Iterations 1
DILUPBiCGStab:  Solving for k, Initial residual = 0.004902, Final residual = 9.41772e-06, No Iterations 1
ExecutionTime = 3.3594 s  ClockTime = 3 s

Courant Number mean: 1.48253e-14 max: 8.49016e-13
Time = 3.5s

DICPCG:  Solving for w, Initial residual = 0.00456576, Final residual = 7.39191e-06, No Iterations 1
DICPCG:  Solving for T, Initial residual = 0.0182107, Final residual = 2.55485e-05, No Iterations 1
Global Volume-Averaged Solid Fraction (Gs) = 0.0232283
GAMG:  Solving for p_rgh, Initial residual = 0.0716604, Final residual = 0.00054048, No Iterations 1
time step continuity errors : sum local = 2.45244e-15, global = 1.49357e-31, cumulative = 1.63106e-30
DILUPBiCGStab:  Solving for omega, Initial residual = 7.08117e-05, Final residual = 1.4394e-07, No Iterations 1
DILUPBiCGStab:  Solving for k, Initial residual = 0.00500628, Final residual = 9.24827e-06, No Iterations 1
ExecutionTime = 3.4345 s  ClockTime = 4 s

Courant Number mean: 1.52889e-14 max: 8.53836e-13
Time = 3.6s

DICPCG:  Solving for w, Initial residual = 0.00444058, Final residual = 7.17553e-06, No Iterations 1
DICPCG:  Solving for T, Initial residual = 0.0181164, Final residual = 2.5384e-05, No Iterations 1
Global Volume-Averaged Solid Fraction (Gs) = 0.0232283
GAMG:  Solving for p_rgh, Initial residual = 0.0711055, Final residual = 0.000538584, No Iterations 1
time step continuity errors : sum local = 2.46185e-15, global = -1.15685e-31, cumulative = 1.51538e-30
DILUPBiCGStab:  Solving for omega, Initial residual = 6.92806e-05, Final residual = 1.39434e-07, No Iterations 1
DILUPBiCGStab:  Solving for k, Initial residual = 0.00511499, Final residual = 9.28121e-06, No Iterations 1
ExecutionTime = 3.5104 s  ClockTime = 4 s

Courant Number mean: 1.57599e-14 max: 8.23282e-13
Time = 3.7s

DICPCG:  Solving for w, Initial residual = 0.00426993, Final residual = 6.93616e-06, No Iterations 1
DICPCG:  Solving for T, Initial residual = 0.0178546, Final residual = 2.50889e-05, No Iterations 1
Global Volume-Averaged Solid Fraction (Gs) = 0.0232283
GAMG:  Solving for p_rgh, Initial residual = 0.0710819, Final residual = 0.000537734, No Iterations 1
time step continuity errors : sum local = 2.46677e-15, global = 2.43443e-31, cumulative = 1.75882e-30
DILUPBiCGStab:  Solving for omega, Initial residual = 6.77586e-05, Final residual = 1.35141e-07, No Iterations 1
DILUPBiCGStab:  Solving for k, Initial residual = 0.0052252, Final residual = 9.055e-06, No Iterations 1
ExecutionTime = 3.58582 s  ClockTime = 4 s

Courant Number mean: 1.63155e-14 max: 6.85915e-13
Time = 3.8s

DICPCG:  Solving for w, Initial residual = 0.00412812, Final residual = 6.70234e-06, No Iterations 1
DICPCG:  Solving for T, Initial residual = 0.0175496, Final residual = 2.45534e-05, No Iterations 1
Global Volume-Averaged Solid Fraction (Gs) = 0.0232283
GAMG:  Solving for p_rgh, Initial residual = 0.0708834, Final residual = 0.000544862, No Iterations 1
time step continuity errors : sum local = 2.52224e-15, global = -7.30996e-32, cumulative = 1.68572e-30
DILUPBiCGStab:  Solving for omega, Initial residual = 6.62016e-05, Final residual = 1.30922e-07, No Iterations 1
DILUPBiCGStab:  Solving for k, Initial residual = 0.00533209, Final residual = 9.07886e-06, No Iterations 1
ExecutionTime = 3.66015 s  ClockTime = 4 s

Courant Number mean: 1.68177e-14 max: 6.08848e-13
Time = 3.9s

DICPCG:  Solving for w, Initial residual = 0.00391057, Final residual = 6.37265e-06, No Iterations 1
DICPCG:  Solving for T, Initial residual = 0.0172849, Final residual = 2.44e-05, No Iterations 1
Global Volume-Averaged Solid Fraction (Gs) = 0.0232283
GAMG:  Solving for p_rgh, Initial residual = 0.0707371, Final residual = 0.000547379, No Iterations 1
time step continuity errors : sum local = 2.54353e-15, global = -1.39632e-31, cumulative = 1.54609e-30
DILUPBiCGStab:  Solving for omega, Initial residual = 6.46522e-05, Final residual = 1.26869e-07, No Iterations 1
DILUPBiCGStab:  Solving for k, Initial residual = 0.00544298, Final residual = 9.08438e-06, No Iterations 1
ExecutionTime = 3.73341 s  ClockTime = 4 s

Courant Number mean: 1.74883e-14 max: 4.96472e-13
Time = 4s

DICPCG:  Solving for w, Initial residual = 0.0036955, Final residual = 5.97948e-06, No Iterations 1
DICPCG:  Solving for T, Initial residual = 0.0169288, Final residual = 2.36236e-05, No Iterations 1
Global Volume-Averaged Solid Fraction (Gs) = 0.0232283
GAMG:  Solving for p_rgh, Initial residual = 0.0707607, Final residual = 0.0005314, No Iterations 1
time step continuity errors : sum local = 2.49503e-15, global = -9.15561e-32, cumulative = 1.45453e-30
DILUPBiCGStab:  Solving for omega, Initial residual = 6.30807e-05, Final residual = 1.23002e-07, No Iterations 1
DILUPBiCGStab:  Solving for k, Initial residual = 0.005551, Final residual = 8.9849e-06, No Iterations 1
ExecutionTime = 4.01321 s  ClockTime = 4 s

Courant Number mean: 1.79292e-14 max: 6.78624e-13
Time = 4.1s

DICPCG:  Solving for w, Initial residual = 0.00366206, Final residual = 5.93361e-06, No Iterations 1
DICPCG:  Solving for T, Initial residual = 0.0167137, Final residual = 2.35907e-05, No Iterations 1
Global Volume-Averaged Solid Fraction (Gs) = 0.0232283
GAMG:  Solving for p_rgh, Initial residual = 0.0707501, Final residual = 0.000539318, No Iterations 1
time step continuity errors : sum local = 2.54258e-15, global = -3.48397e-31, cumulative = 1.10613e-30
DILUPBiCGStab:  Solving for omega, Initial residual = 6.14925e-05, Final residual = 1.194e-07, No Iterations 1
DILUPBiCGStab:  Solving for k, Initial residual = 0.00565844, Final residual = 9.01639e-06, No Iterations 1
ExecutionTime = 4.08795 s  ClockTime = 4 s

Courant Number mean: 1.84663e-14 max: 6.5909e-13
Time = 4.2s

DICPCG:  Solving for w, Initial residual = 0.00345753, Final residual = 5.58796e-06, No Iterations 1
DICPCG:  Solving for T, Initial residual = 0.0163336, Final residual = 2.28008e-05, No Iterations 1
Global Volume-Averaged Solid Fraction (Gs) = 0.0232283
GAMG:  Solving for p_rgh, Initial residual = 0.0701187, Final residual = 0.000541012, No Iterations 1
time step continuity errors : sum local = 2.58293e-15, global = -1.16244e-32, cumulative = 1.09451e-30
DILUPBiCGStab:  Solving for omega, Initial residual = 5.99025e-05, Final residual = 1.15908e-07, No Iterations 1
DILUPBiCGStab:  Solving for k, Initial residual = 0.00576652, Final residual = 9.01254e-06, No Iterations 1
ExecutionTime = 4.16241 s  ClockTime = 4 s

Courant Number mean: 1.88219e-14 max: 5.56833e-13
Time = 4.3s

DICPCG:  Solving for w, Initial residual = 0.00327292, Final residual = 5.30964e-06, No Iterations 1
DICPCG:  Solving for T, Initial residual = 0.0161675, Final residual = 2.26572e-05, No Iterations 1
Global Volume-Averaged Solid Fraction (Gs) = 0.0232283
GAMG:  Solving for p_rgh, Initial residual = 0.0698816, Final residual = 0.000533032, No Iterations 1
time step continuity errors : sum local = 2.55929e-15, global = -1.2619e-31, cumulative = 9.68319e-31
DILUPBiCGStab:  Solving for omega, Initial residual = 5.83136e-05, Final residual = 1.12429e-07, No Iterations 1
DILUPBiCGStab:  Solving for k, Initial residual = 0.00587512, Final residual = 9.00897e-06, No Iterations 1
ExecutionTime = 4.23287 s  ClockTime = 4 s

Courant Number mean: 1.93851e-14 max: 5.7562e-13
Time = 4.4s

DICPCG:  Solving for w, Initial residual = 0.00309817, Final residual = 5.00931e-06, No Iterations 1
DICPCG:  Solving for T, Initial residual = 0.0159032, Final residual = 2.20573e-05, No Iterations 1
Global Volume-Averaged Solid Fraction (Gs) = 0.0232283
GAMG:  Solving for p_rgh, Initial residual = 0.0701222, Final residual = 0.000531332, No Iterations 1
time step continuity errors : sum local = 2.55621e-15, global = 2.2662e-31, cumulative = 1.19494e-30
DILUPBiCGStab:  Solving for omega, Initial residual = 5.67135e-05, Final residual = 1.08533e-07, No Iterations 1
DILUPBiCGStab:  Solving for k, Initial residual = 0.00598204, Final residual = 8.93826e-06, No Iterations 1
ExecutionTime = 4.30333 s  ClockTime = 4 s

Courant Number mean: 1.97964e-14 max: 5.61168e-13
Time = 4.5s

DICPCG:  Solving for w, Initial residual = 0.00295612, Final residual = 4.79386e-06, No Iterations 1
DICPCG:  Solving for T, Initial residual = 0.0156773, Final residual = 2.18426e-05, No Iterations 1
Global Volume-Averaged Solid Fraction (Gs) = 0.0232283
GAMG:  Solving for p_rgh, Initial residual = 0.0688776, Final residual = 0.000528812, No Iterations 1
time step continuity errors : sum local = 2.57041e-15, global = 1.75484e-32, cumulative = 1.21249e-30
DILUPBiCGStab:  Solving for omega, Initial residual = 5.51687e-05, Final residual = 1.049e-07, No Iterations 1
DILUPBiCGStab:  Solving for k, Initial residual = 0.00609644, Final residual = 8.92251e-06, No Iterations 1
ExecutionTime = 4.37232 s  ClockTime = 5 s

Courant Number mean: 2.04133e-14 max: 5.86644e-13
Time = 4.6s

DICPCG:  Solving for w, Initial residual = 0.0030153, Final residual = 4.88578e-06, No Iterations 1
DICPCG:  Solving for T, Initial residual = 0.0155171, Final residual = 2.15327e-05, No Iterations 1
Global Volume-Averaged Solid Fraction (Gs) = 0.0232283
GAMG:  Solving for p_rgh, Initial residual = 0.0692381, Final residual = 0.000531917, No Iterations 1
time step continuity errors : sum local = 2.61739e-15, global = -5.4154e-32, cumulative = 1.15833e-30
DILUPBiCGStab:  Solving for omega, Initial residual = 5.3643e-05, Final residual = 1.01787e-07, No Iterations 1
DILUPBiCGStab:  Solving for k, Initial residual = 0.00621195, Final residual = 8.87948e-06, No Iterations 1
ExecutionTime = 4.4427 s  ClockTime = 5 s

Courant Number mean: 2.09882e-14 max: 6.18272e-13
Time = 4.7s

DICPCG:  Solving for w, Initial residual = 0.00292608, Final residual = 4.74581e-06, No Iterations 1
DICPCG:  Solving for T, Initial residual = 0.0152941, Final residual = 2.13358e-05, No Iterations 1
Global Volume-Averaged Solid Fraction (Gs) = 0.0232283
GAMG:  Solving for p_rgh, Initial residual = 0.0688572, Final residual = 0.000525193, No Iterations 1
time step continuity errors : sum local = 2.62094e-15, global = 1.75288e-31, cumulative = 1.33362e-30
DILUPBiCGStab:  Solving for omega, Initial residual = 5.21219e-05, Final residual = 9.88215e-08, No Iterations 1
DILUPBiCGStab:  Solving for k, Initial residual = 0.00632702, Final residual = 8.83637e-06, No Iterations 1
ExecutionTime = 4.51232 s  ClockTime = 5 s

Courant Number mean: 2.15168e-14 max: 7.04535e-13
Time = 4.8s

DICPCG:  Solving for w, Initial residual = 0.00279488, Final residual = 4.49417e-06, No Iterations 1
DICPCG:  Solving for T, Initial residual = 0.0149706, Final residual = 2.09354e-05, No Iterations 1
Global Volume-Averaged Solid Fraction (Gs) = 0.0232283
GAMG:  Solving for p_rgh, Initial residual = 0.0677179, Final residual = 0.000523871, No Iterations 1
time step continuity errors : sum local = 2.63684e-15, global = 3.52644e-32, cumulative = 1.36889e-30
DILUPBiCGStab:  Solving for omega, Initial residual = 5.06063e-05, Final residual = 9.60628e-08, No Iterations 1
DILUPBiCGStab:  Solving for k, Initial residual = 0.00644166, Final residual = 8.79365e-06, No Iterations 1
ExecutionTime = 4.58225 s  ClockTime = 5 s

Courant Number mean: 2.19426e-14 max: 6.925e-13
Time = 4.9s

DICPCG:  Solving for w, Initial residual = 0.0027184, Final residual = 4.38162e-06, No Iterations 1
DICPCG:  Solving for T, Initial residual = 0.0148921, Final residual = 2.07481e-05, No Iterations 1
Global Volume-Averaged Solid Fraction (Gs) = 0.0232283
GAMG:  Solving for p_rgh, Initial residual = 0.0685093, Final residual = 0.000532621, No Iterations 1
time step continuity errors : sum local = 2.67361e-15, global = -4.61064e-33, cumulative = 1.36428e-30
DILUPBiCGStab:  Solving for omega, Initial residual = 4.90978e-05, Final residual = 9.34379e-08, No Iterations 1
DILUPBiCGStab:  Solving for k, Initial residual = 0.00655582, Final residual = 8.75185e-06, No Iterations 1
ExecutionTime = 4.65278 s  ClockTime = 5 s

Courant Number mean: 2.25676e-14 max: 6.25162e-13
Time = 5s

DICPCG:  Solving for w, Initial residual = 0.00263004, Final residual = 4.25536e-06, No Iterations 1
DICPCG:  Solving for T, Initial residual = 0.0147473, Final residual = 2.05217e-05, No Iterations 1
Global Volume-Averaged Solid Fraction (Gs) = 0.0232283
GAMG:  Solving for p_rgh, Initial residual = 0.0688971, Final residual = 0.000523338, No Iterations 1
time step continuity errors : sum local = 2.65718e-15, global = 5.01023e-32, cumulative = 1.41438e-30
DILUPBiCGStab:  Solving for omega, Initial residual = 4.7598e-05, Final residual = 9.10815e-08, No Iterations 1
DILUPBiCGStab:  Solving for k, Initial residual = 0.00666941, Final residual = 8.71102e-06, No Iterations 1
ExecutionTime = 4.92496 s  ClockTime = 5 s

Courant Number mean: 2.30837e-14 max: 6.6249e-13
Time = 5.1s

DICPCG:  Solving for w, Initial residual = 0.00252158, Final residual = 4.0636e-06, No Iterations 1
DICPCG:  Solving for T, Initial residual = 0.0145755, Final residual = 2.03374e-05, No Iterations 1
Global Volume-Averaged Solid Fraction (Gs) = 0.0232283
GAMG:  Solving for p_rgh, Initial residual = 0.0676345, Final residual = 0.00051813, No Iterations 1
time step continuity errors : sum local = 2.65454e-15, global = 2.27738e-32, cumulative = 1.43715e-30
DILUPBiCGStab:  Solving for omega, Initial residual = 4.61141e-05, Final residual = 8.89064e-08, No Iterations 1
DILUPBiCGStab:  Solving for k, Initial residual = 0.00678239, Final residual = 8.67167e-06, No Iterations 1
ExecutionTime = 4.99179 s  ClockTime = 5 s

Courant Number mean: 2.35785e-14 max: 6.36253e-13
Time = 5.2s

DICPCG:  Solving for w, Initial residual = 0.00247569, Final residual = 3.99159e-06, No Iterations 1
DICPCG:  Solving for T, Initial residual = 0.0143931, Final residual = 1.99565e-05, No Iterations 1
Global Volume-Averaged Solid Fraction (Gs) = 0.0232283
GAMG:  Solving for p_rgh, Initial residual = 0.0679836, Final residual = 0.00052331, No Iterations 1
time step continuity errors : sum local = 2.68159e-15, global = 3.11847e-32, cumulative = 1.46834e-30
DILUPBiCGStab:  Solving for omega, Initial residual = 4.46456e-05, Final residual = 8.70467e-08, No Iterations 1
DILUPBiCGStab:  Solving for k, Initial residual = 0.00689467, Final residual = 8.63414e-06, No Iterations 1
ExecutionTime = 5.05966 s  ClockTime = 5 s

Courant Number mean: 2.41249e-14 max: 7.64759e-13
Time = 5.3s

DICPCG:  Solving for w, Initial residual = 0.00240169, Final residual = 3.85737e-06, No Iterations 1
DICPCG:  Solving for T, Initial residual = 0.0143369, Final residual = 1.99102e-05, No Iterations 1
Global Volume-Averaged Solid Fraction (Gs) = 0.0232283
GAMG:  Solving for p_rgh, Initial residual = 0.067645, Final residual = 0.000514958, No Iterations 1
time step continuity errors : sum local = 2.72482e-15, global = -6.52475e-32, cumulative = 1.40309e-30
DILUPBiCGStab:  Solving for omega, Initial residual = 4.31893e-05, Final residual = 8.55098e-08, No Iterations 1
DILUPBiCGStab:  Solving for k, Initial residual = 0.00700614, Final residual = 8.59951e-06, No Iterations 1
ExecutionTime = 5.12742 s  ClockTime = 5 s

Courant Number mean: 2.46644e-14 max: 7.23535e-13
Time = 5.4s

DICPCG:  Solving for w, Initial residual = 0.00234538, Final residual = 3.7583e-06, No Iterations 1
DICPCG:  Solving for T, Initial residual = 0.0141988, Final residual = 1.97441e-05, No Iterations 1
Global Volume-Averaged Solid Fraction (Gs) = 0.0232283
GAMG:  Solving for p_rgh, Initial residual = 0.0679428, Final residual = 0.000522142, No Iterations 1
time step continuity errors : sum local = 2.7887e-15, global = 5.06472e-33, cumulative = 1.40815e-30
DILUPBiCGStab:  Solving for omega, Initial residual = 4.17462e-05, Final residual = 8.41352e-08, No Iterations 1
DILUPBiCGStab:  Solving for k, Initial residual = 0.0071167, Final residual = 8.5663e-06, No Iterations 1
ExecutionTime = 5.19531 s  ClockTime = 5 s

Courant Number mean: 2.52699e-14 max: 7.61556e-13
Time = 5.5s

DICPCG:  Solving for w, Initial residual = 0.00224374, Final residual = 3.62309e-06, No Iterations 1
DICPCG:  Solving for T, Initial residual = 0.0140967, Final residual = 1.94666e-05, No Iterations 1
Global Volume-Averaged Solid Fraction (Gs) = 0.0232283
GAMG:  Solving for p_rgh, Initial residual = 0.0678154, Final residual = 0.000517478, No Iterations 1
time step continuity errors : sum local = 2.78879e-15, global = 9.26302e-32, cumulative = 1.50078e-30
DILUPBiCGStab:  Solving for omega, Initial residual = 4.03179e-05, Final residual = 8.28548e-08, No Iterations 1
DILUPBiCGStab:  Solving for k, Initial residual = 0.00722635, Final residual = 8.53297e-06, No Iterations 1
ExecutionTime = 5.2629 s  ClockTime = 5 s

Courant Number mean: 2.58365e-14 max: 7.04991e-13
Time = 5.6s

DICPCG:  Solving for w, Initial residual = 0.00215954, Final residual = 3.43998e-06, No Iterations 1
DICPCG:  Solving for T, Initial residual = 0.0140273, Final residual = 1.94422e-05, No Iterations 1
Global Volume-Averaged Solid Fraction (Gs) = 0.0232283
GAMG:  Solving for p_rgh, Initial residual = 0.0681101, Final residual = 0.000520175, No Iterations 1
time step continuity errors : sum local = 2.81454e-15, global = 1.30216e-32, cumulative = 1.5138e-30
DILUPBiCGStab:  Solving for omega, Initial residual = 3.89042e-05, Final residual = 8.18674e-08, No Iterations 1
DILUPBiCGStab:  Solving for k, Initial residual = 0.00733502, Final residual = 8.49948e-06, No Iterations 1
ExecutionTime = 5.33076 s  ClockTime = 5 s

Courant Number mean: 2.62672e-14 max: 7.51036e-13
Time = 5.7s

DICPCG:  Solving for w, Initial residual = 0.00201436, Final residual = 3.23562e-06, No Iterations 1
DICPCG:  Solving for T, Initial residual = 0.0138873, Final residual = 1.93282e-05, No Iterations 1
Global Volume-Averaged Solid Fraction (Gs) = 0.0232283
GAMG:  Solving for p_rgh, Initial residual = 0.0672196, Final residual = 0.000512424, No Iterations 1
time step continuity errors : sum local = 2.80566e-15, global = 5.21701e-32, cumulative = 1.56597e-30
DILUPBiCGStab:  Solving for omega, Initial residual = 3.75061e-05, Final residual = 8.11258e-08, No Iterations 1
DILUPBiCGStab:  Solving for k, Initial residual = 0.00744248, Final residual = 8.4663e-06, No Iterations 1
ExecutionTime = 5.39963 s  ClockTime = 6 s

Courant Number mean: 2.69169e-14 max: 7.9587e-13
Time = 5.8s

DICPCG:  Solving for w, Initial residual = 0.00197209, Final residual = 3.1478e-06, No Iterations 1
DICPCG:  Solving for T, Initial residual = 0.013735, Final residual = 1.90068e-05, No Iterations 1
Global Volume-Averaged Solid Fraction (Gs) = 0.0232283
GAMG:  Solving for p_rgh, Initial residual = 0.0669173, Final residual = 0.00051253, No Iterations 1
time step continuity errors : sum local = 2.83973e-15, global = -1.99878e-31, cumulative = 1.3661e-30
DILUPBiCGStab:  Solving for omega, Initial residual = 3.61246e-05, Final residual = 8.05846e-08, No Iterations 1
DILUPBiCGStab:  Solving for k, Initial residual = 0.00754848, Final residual = 8.43319e-06, No Iterations 1
ExecutionTime = 5.47127 s  ClockTime = 6 s

Courant Number mean: 2.72168e-14 max: 8.89198e-13
Time = 5.9s

DICPCG:  Solving for w, Initial residual = 0.00196158, Final residual = 3.12217e-06, No Iterations 1
DICPCG:  Solving for T, Initial residual = 0.013476, Final residual = 1.87311e-05, No Iterations 1
Global Volume-Averaged Solid Fraction (Gs) = 0.0232283
GAMG:  Solving for p_rgh, Initial residual = 0.0673945, Final residual = 0.000519756, No Iterations 1
time step continuity errors : sum local = 2.89235e-15, global = 1.24068e-32, cumulative = 1.3785e-30
DILUPBiCGStab:  Solving for omega, Initial residual = 3.47611e-05, Final residual = 8.01976e-08, No Iterations 1
DILUPBiCGStab:  Solving for k, Initial residual = 0.00765313, Final residual = 8.40009e-06, No Iterations 1
ExecutionTime = 5.5453 s  ClockTime = 6 s

Courant Number mean: 2.77585e-14 max: 8.75837e-13
Time = 6s

DICPCG:  Solving for w, Initial residual = 0.00183709, Final residual = 2.90529e-06, No Iterations 1
DICPCG:  Solving for T, Initial residual = 0.0134305, Final residual = 1.86054e-05, No Iterations 1
Global Volume-Averaged Solid Fraction (Gs) = 0.0232283
GAMG:  Solving for p_rgh, Initial residual = 0.0663382, Final residual = 0.000521256, No Iterations 1
time step continuity errors : sum local = 2.88548e-15, global = -1.39157e-31, cumulative = 1.23935e-30
DILUPBiCGStab:  Solving for omega, Initial residual = 3.34164e-05, Final residual = 8.00018e-08, No Iterations 1
DILUPBiCGStab:  Solving for k, Initial residual = 0.00775649, Final residual = 8.36703e-06, No Iterations 1
ExecutionTime = 5.83967 s  ClockTime = 6 s

Courant Number mean: 2.81174e-14 max: 9.32392e-13
Time = 6.1s

DICPCG:  Solving for w, Initial residual = 0.00175615, Final residual = 2.78673e-06, No Iterations 1
DICPCG:  Solving for T, Initial residual = 0.0132525, Final residual = 1.82869e-05, No Iterations 1
Global Volume-Averaged Solid Fraction (Gs) = 0.0232283
GAMG:  Solving for p_rgh, Initial residual = 0.0663866, Final residual = 0.000520897, No Iterations 1
time step continuity errors : sum local = 2.93592e-15, global = -2.20528e-31, cumulative = 1.01882e-30
DILUPBiCGStab:  Solving for omega, Initial residual = 3.20912e-05, Final residual = 7.98425e-08, No Iterations 1
DILUPBiCGStab:  Solving for k, Initial residual = 0.00785847, Final residual = 8.3338e-06, No Iterations 1
ExecutionTime = 5.91187 s  ClockTime = 6 s

Courant Number mean: 2.86296e-14 max: 8.80805e-13
Time = 6.2s

DICPCG:  Solving for w, Initial residual = 0.00174046, Final residual = 2.74784e-06, No Iterations 1
DICPCG:  Solving for T, Initial residual = 0.0131784, Final residual = 1.81854e-05, No Iterations 1
Global Volume-Averaged Solid Fraction (Gs) = 0.0232283
GAMG:  Solving for p_rgh, Initial residual = 0.0662704, Final residual = 0.000521864, No Iterations 1
time step continuity errors : sum local = 2.93393e-15, global = -8.97258e-32, cumulative = 9.29092e-31
DILUPBiCGStab:  Solving for omega, Initial residual = 3.07868e-05, Final residual = 7.97213e-08, No Iterations 1
DILUPBiCGStab:  Solving for k, Initial residual = 0.00795873, Final residual = 8.29992e-06, No Iterations 1
ExecutionTime = 5.98215 s  ClockTime = 6 s

Courant Number mean: 2.89369e-14 max: 8.46706e-13
Time = 6.3s

DICPCG:  Solving for w, Initial residual = 0.0016045, Final residual = 2.55418e-06, No Iterations 1
DICPCG:  Solving for T, Initial residual = 0.0131263, Final residual = 1.8198e-05, No Iterations 1
Global Volume-Averaged Solid Fraction (Gs) = 0.0232283
GAMG:  Solving for p_rgh, Initial residual = 0.0697, Final residual = 0.000523078, No Iterations 1
time step continuity errors : sum local = 2.97707e-15, global = 1.28651e-31, cumulative = 1.05774e-30
DILUPBiCGStab:  Solving for omega, Initial residual = 2.95044e-05, Final residual = 7.9635e-08, No Iterations 1
DILUPBiCGStab:  Solving for k, Initial residual = 0.00805734, Final residual = 8.26534e-06, No Iterations 1
ExecutionTime = 6.05234 s  ClockTime = 6 s

Courant Number mean: 2.95247e-14 max: 8.11133e-13
Time = 6.4s

DICPCG:  Solving for w, Initial residual = 0.00155052, Final residual = 2.44749e-06, No Iterations 1
DICPCG:  Solving for T, Initial residual = 0.0131524, Final residual = 1.81176e-05, No Iterations 1
Global Volume-Averaged Solid Fraction (Gs) = 0.0232283
GAMG:  Solving for p_rgh, Initial residual = 0.0668115, Final residual = 0.000517639, No Iterations 1
time step continuity errors : sum local = 2.98183e-15, global = -1.51508e-31, cumulative = 9.06235e-31
DILUPBiCGStab:  Solving for omega, Initial residual = 2.82553e-05, Final residual = 7.95846e-08, No Iterations 1
DILUPBiCGStab:  Solving for k, Initial residual = 0.00815441, Final residual = 8.23064e-06, No Iterations 1
ExecutionTime = 6.12351 s  ClockTime = 6 s

Courant Number mean: 2.98794e-14 max: 8.27751e-13
Time = 6.5s

DICPCG:  Solving for w, Initial residual = 0.00152367, Final residual = 2.43256e-06, No Iterations 1
DICPCG:  Solving for T, Initial residual = 0.0130967, Final residual = 1.80903e-05, No Iterations 1
Global Volume-Averaged Solid Fraction (Gs) = 0.0232283
GAMG:  Solving for p_rgh, Initial residual = 0.0661131, Final residual = 0.000514743, No Iterations 1
time step continuity errors : sum local = 2.97442e-15, global = 3.23024e-32, cumulative = 9.38537e-31
DILUPBiCGStab:  Solving for omega, Initial residual = 2.70285e-05, Final residual = 7.9558e-08, No Iterations 1
DILUPBiCGStab:  Solving for k, Initial residual = 0.00824989, Final residual = 8.1953e-06, No Iterations 1
ExecutionTime = 6.19327 s  ClockTime = 6 s

Courant Number mean: 3.04661e-14 max: 8.35347e-13
Time = 6.6s

DICPCG:  Solving for w, Initial residual = 0.00155539, Final residual = 2.46776e-06, No Iterations 1
DICPCG:  Solving for T, Initial residual = 0.0128788, Final residual = 1.78381e-05, No Iterations 1
Global Volume-Averaged Solid Fraction (Gs) = 0.0232283
GAMG:  Solving for p_rgh, Initial residual = 0.0655464, Final residual = 0.00051706, No Iterations 1
time step continuity errors : sum local = 3.04235e-15, global = 7.95824e-32, cumulative = 1.01812e-30
DILUPBiCGStab:  Solving for omega, Initial residual = 2.58251e-05, Final residual = 7.95846e-08, No Iterations 1
DILUPBiCGStab:  Solving for k, Initial residual = 0.00834372, Final residual = 8.16023e-06, No Iterations 1
ExecutionTime = 6.2604 s  ClockTime = 6 s

Courant Number mean: 3.09595e-14 max: 8.77346e-13
Time = 6.7s

DICPCG:  Solving for w, Initial residual = 0.00149698, Final residual = 2.38483e-06, No Iterations 1
DICPCG:  Solving for T, Initial residual = 0.0128154, Final residual = 1.76644e-05, No Iterations 1
Global Volume-Averaged Solid Fraction (Gs) = 0.0232283
GAMG:  Solving for p_rgh, Initial residual = 0.0655735, Final residual = 0.000515606, No Iterations 1
time step continuity errors : sum local = 3.06475e-15, global = 1.43545e-31, cumulative = 1.16166e-30
DILUPBiCGStab:  Solving for omega, Initial residual = 2.46455e-05, Final residual = 7.967e-08, No Iterations 1
DILUPBiCGStab:  Solving for k, Initial residual = 0.00843585, Final residual = 8.1255e-06, No Iterations 1
ExecutionTime = 6.32816 s  ClockTime = 6 s

Courant Number mean: 3.17017e-14 max: 9.10611e-13
Time = 6.8s

DICPCG:  Solving for w, Initial residual = 0.00146492, Final residual = 2.31885e-06, No Iterations 1
DICPCG:  Solving for T, Initial residual = 0.0126473, Final residual = 1.74108e-05, No Iterations 1
Global Volume-Averaged Solid Fraction (Gs) = 0.0232283
GAMG:  Solving for p_rgh, Initial residual = 0.0653802, Final residual = 0.000526418, No Iterations 1
time step continuity errors : sum local = 3.11646e-15, global = 2.71804e-31, cumulative = 1.43347e-30
DILUPBiCGStab:  Solving for omega, Initial residual = 2.34904e-05, Final residual = 7.97324e-08, No Iterations 1
DILUPBiCGStab:  Solving for k, Initial residual = 0.00852622, Final residual = 8.09065e-06, No Iterations 1
ExecutionTime = 6.396 s  ClockTime = 7 s

Courant Number mean: 3.20817e-14 max: 9.2527e-13
Time = 6.9s

DICPCG:  Solving for w, Initial residual = 0.00140388, Final residual = 2.23327e-06, No Iterations 1
DICPCG:  Solving for T, Initial residual = 0.0125776, Final residual = 1.73457e-05, No Iterations 1
Global Volume-Averaged Solid Fraction (Gs) = 0.0232283
GAMG:  Solving for p_rgh, Initial residual = 0.0651068, Final residual = 0.000522206, No Iterations 1
time step continuity errors : sum local = 3.11497e-15, global = -1.8789e-31, cumulative = 1.24558e-30
DILUPBiCGStab:  Solving for omega, Initial residual = 2.2361e-05, Final residual = 7.97922e-08, No Iterations 1
DILUPBiCGStab:  Solving for k, Initial residual = 0.00861479, Final residual = 8.05589e-06, No Iterations 1
ExecutionTime = 6.46401 s  ClockTime = 7 s

Courant Number mean: 3.27842e-14 max: 9.2628e-13
Time = 7s

DICPCG:  Solving for w, Initial residual = 0.00137915, Final residual = 2.17513e-06, No Iterations 1
DICPCG:  Solving for T, Initial residual = 0.0124875, Final residual = 1.72029e-05, No Iterations 1
Global Volume-Averaged Solid Fraction (Gs) = 0.0232283
GAMG:  Solving for p_rgh, Initial residual = 0.0656537, Final residual = 0.000523621, No Iterations 1
time step continuity errors : sum local = 3.16569e-15, global = 2.41989e-32, cumulative = 1.26978e-30
DILUPBiCGStab:  Solving for omega, Initial residual = 2.1257e-05, Final residual = 7.993e-08, No Iterations 1
DILUPBiCGStab:  Solving for k, Initial residual = 0.00870149, Final residual = 8.02183e-06, No Iterations 1
ExecutionTime = 6.7425 s  ClockTime = 7 s

Courant Number mean: 3.32876e-14 max: 9.63815e-13
Time = 7.1s

DICPCG:  Solving for w, Initial residual = 0.00135017, Final residual = 2.13708e-06, No Iterations 1
DICPCG:  Solving for T, Initial residual = 0.0123348, Final residual = 1.69337e-05, No Iterations 1
Global Volume-Averaged Solid Fraction (Gs) = 0.0232283
GAMG:  Solving for p_rgh, Initial residual = 0.0665257, Final residual = 0.000516879, No Iterations 1
time step continuity errors : sum local = 3.16603e-15, global = 9.72425e-32, cumulative = 1.36702e-30
DILUPBiCGStab:  Solving for omega, Initial residual = 2.01791e-05, Final residual = 8.00301e-08, No Iterations 1
DILUPBiCGStab:  Solving for k, Initial residual = 0.00878629, Final residual = 7.9883e-06, No Iterations 1
ExecutionTime = 6.81001 s  ClockTime = 7 s

Courant Number mean: 3.39696e-14 max: 9.40429e-13
Time = 7.2s

DICPCG:  Solving for w, Initial residual = 0.00133346, Final residual = 2.10144e-06, No Iterations 1
DICPCG:  Solving for T, Initial residual = 0.0123632, Final residual = 1.70339e-05, No Iterations 1
Global Volume-Averaged Solid Fraction (Gs) = 0.0232283
GAMG:  Solving for p_rgh, Initial residual = 0.0655396, Final residual = 0.000518104, No Iterations 1
time step continuity errors : sum local = 3.20125e-15, global = -1.60562e-31, cumulative = 1.20646e-30
DILUPBiCGStab:  Solving for omega, Initial residual = 1.91277e-05, Final residual = 8.00789e-08, No Iterations 1
DILUPBiCGStab:  Solving for k, Initial residual = 0.00886915, Final residual = 7.95571e-06, No Iterations 1
ExecutionTime = 6.87834 s  ClockTime = 7 s

Courant Number mean: 3.45001e-14 max: 9.67893e-13
Time = 7.3s

DICPCG:  Solving for w, Initial residual = 0.00128959, Final residual = 2.04902e-06, No Iterations 1
DICPCG:  Solving for T, Initial residual = 0.0122647, Final residual = 1.68574e-05, No Iterations 1
Global Volume-Averaged Solid Fraction (Gs) = 0.0232283
GAMG:  Solving for p_rgh, Initial residual = 0.0661459, Final residual = 0.000515371, No Iterations 1
time step continuity errors : sum local = 3.22918e-15, global = 9.35261e-32, cumulative = 1.29998e-30
DILUPBiCGStab:  Solving for omega, Initial residual = 1.81039e-05, Final residual = 8.0069e-08, No Iterations 1
DILUPBiCGStab:  Solving for k, Initial residual = 0.00895002, Final residual = 7.9239e-06, No Iterations 1
ExecutionTime = 6.94761 s  ClockTime = 7 s

Courant Number mean: 3.5356e-14 max: 9.4594e-13
Time = 7.4s

DICPCG:  Solving for w, Initial residual = 0.00128329, Final residual = 2.01596e-06, No Iterations 1
DICPCG:  Solving for T, Initial residual = 0.012213, Final residual = 1.67961e-05, No Iterations 1
Global Volume-Averaged Solid Fraction (Gs) = 0.0232283
GAMG:  Solving for p_rgh, Initial residual = 0.0645124, Final residual = 0.000514349, No Iterations 1
time step continuity errors : sum local = 3.25778e-15, global = -1.46758e-31, cumulative = 1.15323e-30
DILUPBiCGStab:  Solving for omega, Initial residual = 1.71179e-05, Final residual = 7.99923e-08, No Iterations 1
DILUPBiCGStab:  Solving for k, Initial residual = 0.00902888, Final residual = 7.89313e-06, No Iterations 1
ExecutionTime = 7.01783 s  ClockTime = 7 s

Courant Number mean: 3.59993e-14 max: 9.92899e-13
Time = 7.5s

DICPCG:  Solving for w, Initial residual = 0.00125316, Final residual = 1.97313e-06, No Iterations 1
DICPCG:  Solving for T, Initial residual = 0.0121002, Final residual = 1.66272e-05, No Iterations 1
Global Volume-Averaged Solid Fraction (Gs) = 0.0232283
GAMG:  Solving for p_rgh, Initial residual = 0.0650465, Final residual = 0.000520791, No Iterations 1
time step continuity errors : sum local = 3.29899e-15, global = -7.54468e-34, cumulative = 1.15247e-30
DILUPBiCGStab:  Solving for omega, Initial residual = 1.61615e-05, Final residual = 7.99253e-08, No Iterations 1
DILUPBiCGStab:  Solving for k, Initial residual = 0.0091057, Final residual = 7.86396e-06, No Iterations 1
ExecutionTime = 7.08409 s  ClockTime = 7 s

Courant Number mean: 3.68988e-14 max: 9.65582e-13
Time = 7.6s

DICPCG:  Solving for w, Initial residual = 0.00122871, Final residual = 1.93798e-06, No Iterations 1
DICPCG:  Solving for T, Initial residual = 0.0120782, Final residual = 1.66192e-05, No Iterations 1
Global Volume-Averaged Solid Fraction (Gs) = 0.0232283
GAMG:  Solving for p_rgh, Initial residual = 0.0654029, Final residual = 0.000517103, No Iterations 1
time step continuity errors : sum local = 3.31306e-15, global = -1.38682e-31, cumulative = 1.01379e-30
DILUPBiCGStab:  Solving for omega, Initial residual = 1.52321e-05, Final residual = 7.97337e-08, No Iterations 1
DILUPBiCGStab:  Solving for k, Initial residual = 0.00918043, Final residual = 7.83563e-06, No Iterations 1
ExecutionTime = 7.15189 s  ClockTime = 7 s

Courant Number mean: 3.74801e-14 max: 1.09498e-12
Time = 7.7s

DICPCG:  Solving for w, Initial residual = 0.00117231, Final residual = 1.85307e-06, No Iterations 1
DICPCG:  Solving for T, Initial residual = 0.0121129, Final residual = 1.67213e-05, No Iterations 1
Global Volume-Averaged Solid Fraction (Gs) = 0.0232283
GAMG:  Solving for p_rgh, Initial residual = 0.0656807, Final residual = 0.000513799, No Iterations 1
time step continuity errors : sum local = 3.33542e-15, global = -3.80587e-32, cumulative = 9.7573e-31
DILUPBiCGStab:  Solving for omega, Initial residual = 1.43302e-05, Final residual = 7.94068e-08, No Iterations 1
DILUPBiCGStab:  Solving for k, Initial residual = 0.00925306, Final residual = 7.80803e-06, No Iterations 1
ExecutionTime = 7.2208 s  ClockTime = 7 s

Courant Number mean: 3.84155e-14 max: 1.07363e-12
Time = 7.8s

DICPCG:  Solving for w, Initial residual = 0.00118261, Final residual = 1.86169e-06, No Iterations 1
DICPCG:  Solving for T, Initial residual = 0.0120205, Final residual = 1.65266e-05, No Iterations 1
Global Volume-Averaged Solid Fraction (Gs) = 0.0232283
GAMG:  Solving for p_rgh, Initial residual = 0.0654584, Final residual = 0.00052212, No Iterations 1
time step continuity errors : sum local = 3.3961e-15, global = -2.19802e-31, cumulative = 7.55928e-31
DILUPBiCGStab:  Solving for omega, Initial residual = 1.34553e-05, Final residual = 7.89341e-08, No Iterations 1
DILUPBiCGStab:  Solving for k, Initial residual = 0.00932344, Final residual = 7.78167e-06, No Iterations 1
ExecutionTime = 7.28985 s  ClockTime = 7 s

Courant Number mean: 3.92611e-14 max: 1.19099e-12
Time = 7.9s

DICPCG:  Solving for w, Initial residual = 0.00112491, Final residual = 1.7808e-06, No Iterations 1
DICPCG:  Solving for T, Initial residual = 0.0119398, Final residual = 1.64668e-05, No Iterations 1
Global Volume-Averaged Solid Fraction (Gs) = 0.0232283
GAMG:  Solving for p_rgh, Initial residual = 0.0656148, Final residual = 0.000520279, No Iterations 1
time step continuity errors : sum local = 3.42634e-15, global = 3.44485e-31, cumulative = 1.10041e-30
DILUPBiCGStab:  Solving for omega, Initial residual = 1.26115e-05, Final residual = 7.83003e-08, No Iterations 1
DILUPBiCGStab:  Solving for k, Initial residual = 0.00939165, Final residual = 7.7571e-06, No Iterations 1
ExecutionTime = 7.35933 s  ClockTime = 7 s

Courant Number mean: 4.01423e-14 max: 1.16958e-12
Time = 8s

DICPCG:  Solving for w, Initial residual = 0.00105866, Final residual = 1.66658e-06, No Iterations 1
DICPCG:  Solving for T, Initial residual = 0.0117814, Final residual = 1.61288e-05, No Iterations 1
Global Volume-Averaged Solid Fraction (Gs) = 0.0232283
GAMG:  Solving for p_rgh, Initial residual = 0.0648599, Final residual = 0.00051946, No Iterations 1
time step continuity errors : sum local = 3.44817e-15, global = 7.56983e-32, cumulative = 1.17611e-30
DILUPBiCGStab:  Solving for omega, Initial residual = 1.1796e-05, Final residual = 7.74858e-08, No Iterations 1
DILUPBiCGStab:  Solving for k, Initial residual = 0.00945767, Final residual = 7.73414e-06, No Iterations 1
ExecutionTime = 7.63981 s  ClockTime = 8 s

Courant Number mean: 4.10168e-14 max: 1.2246e-12
Time = 8.1s

DICPCG:  Solving for w, Initial residual = 0.00101696, Final residual = 1.60088e-06, No Iterations 1
DICPCG:  Solving for T, Initial residual = 0.0116975, Final residual = 1.6106e-05, No Iterations 1
Global Volume-Averaged Solid Fraction (Gs) = 0.0232283
GAMG:  Solving for p_rgh, Initial residual = 0.0644156, Final residual = 0.00051622, No Iterations 1
time step continuity errors : sum local = 3.46702e-15, global = -9.54262e-32, cumulative = 1.08068e-30
DILUPBiCGStab:  Solving for omega, Initial residual = 1.1031e-05, Final residual = 7.6467e-08, No Iterations 1
DILUPBiCGStab:  Solving for k, Initial residual = 0.00952151, Final residual = 7.71203e-06, No Iterations 1
ExecutionTime = 7.70689 s  ClockTime = 8 s

Courant Number mean: 4.19855e-14 max: 1.21276e-12
Time = 8.2s

DICPCG:  Solving for w, Initial residual = 0.00101449, Final residual = 1.59159e-06, No Iterations 1
DICPCG:  Solving for T, Initial residual = 0.0116734, Final residual = 1.60687e-05, No Iterations 1
Global Volume-Averaged Solid Fraction (Gs) = 0.0232283
GAMG:  Solving for p_rgh, Initial residual = 0.0641376, Final residual = 0.00052113, No Iterations 1
time step continuity errors : sum local = 3.48584e-15, global = 8.78536e-32, cumulative = 1.16854e-30
DILUPBiCGStab:  Solving for omega, Initial residual = 1.02975e-05, Final residual = 7.52183e-08, No Iterations 1
DILUPBiCGStab:  Solving for k, Initial residual = 0.00958316, Final residual = 7.69104e-06, No Iterations 1
ExecutionTime = 7.77471 s  ClockTime = 8 s

Courant Number mean: 4.27781e-14 max: 1.24173e-12
Time = 8.3s

DICPCG:  Solving for w, Initial residual = 0.00102027, Final residual = 1.60727e-06, No Iterations 1
DICPCG:  Solving for T, Initial residual = 0.0115385, Final residual = 1.5859e-05, No Iterations 1
Global Volume-Averaged Solid Fraction (Gs) = 0.0232283
GAMG:  Solving for p_rgh, Initial residual = 0.0634656, Final residual = 0.000508358, No Iterations 1
time step continuity errors : sum local = 3.44607e-15, global = 1.70454e-33, cumulative = 1.17024e-30
DILUPBiCGStab:  Solving for omega, Initial residual = 9.5934e-06, Final residual = 7.36971e-08, No Iterations 1
DILUPBiCGStab:  Solving for k, Initial residual = 0.00964259, Final residual = 7.67119e-06, No Iterations 1
ExecutionTime = 7.84367 s  ClockTime = 8 s

Courant Number mean: 4.37017e-14 max: 1.19268e-12
Time = 8.4s

DICPCG:  Solving for w, Initial residual = 0.000964586, Final residual = 1.49435e-06, No Iterations 1
DICPCG:  Solving for T, Initial residual = 0.0114332, Final residual = 1.57122e-05, No Iterations 1
Global Volume-Averaged Solid Fraction (Gs) = 0.0232283
GAMG:  Solving for p_rgh, Initial residual = 0.0672547, Final residual = 0.000513823, No Iterations 1
time step continuity errors : sum local = 3.50641e-15, global = -1.81072e-32, cumulative = 1.15214e-30
DILUPBiCGStab:  Solving for omega, Initial residual = 8.92106e-06, Final residual = 7.18618e-08, No Iterations 1
DILUPBiCGStab:  Solving for k, Initial residual = 0.0096998, Final residual = 7.65297e-06, No Iterations 1
ExecutionTime = 7.9125 s  ClockTime = 8 s

Courant Number mean: 4.44732e-14 max: 1.25134e-12
Time = 8.5s

DICPCG:  Solving for w, Initial residual = 0.000924512, Final residual = 1.44178e-06, No Iterations 1
DICPCG:  Solving for T, Initial residual = 0.011347, Final residual = 1.55714e-05, No Iterations 1
Global Volume-Averaged Solid Fraction (Gs) = 0.0232283
GAMG:  Solving for p_rgh, Initial residual = 0.065136, Final residual = 0.00051581, No Iterations 1
time step continuity errors : sum local = 3.54301e-15, global = -3.48173e-32, cumulative = 1.11732e-30
DILUPBiCGStab:  Solving for omega, Initial residual = 8.30595e-06, Final residual = 6.97003e-08, No Iterations 1
DILUPBiCGStab:  Solving for k, Initial residual = 0.00975472, Final residual = 7.63597e-06, No Iterations 1
ExecutionTime = 7.98131 s  ClockTime = 8 s

Courant Number mean: 4.55621e-14 max: 1.23457e-12
Time = 8.6s

DICPCG:  Solving for w, Initial residual = 0.00092562, Final residual = 1.43544e-06, No Iterations 1
DICPCG:  Solving for T, Initial residual = 0.011241, Final residual = 1.53809e-05, No Iterations 1
Global Volume-Averaged Solid Fraction (Gs) = 0.0232283
GAMG:  Solving for p_rgh, Initial residual = 0.0638936, Final residual = 0.000508857, No Iterations 1
time step continuity errors : sum local = 3.50561e-15, global = 1.24068e-32, cumulative = 1.12972e-30
DILUPBiCGStab:  Solving for omega, Initial residual = 7.71983e-06, Final residual = 6.71406e-08, No Iterations 1
DILUPBiCGStab:  Solving for k, Initial residual = 0.00980745, Final residual = 7.62022e-06, No Iterations 1
ExecutionTime = 8.04886 s  ClockTime = 8 s

Courant Number mean: 4.61486e-14 max: 1.27439e-12
Time = 8.7s

DICPCG:  Solving for w, Initial residual = 0.000902195, Final residual = 1.4114e-06, No Iterations 1
DICPCG:  Solving for T, Initial residual = 0.0112605, Final residual = 1.54564e-05, No Iterations 1
Global Volume-Averaged Solid Fraction (Gs) = 0.0232283
GAMG:  Solving for p_rgh, Initial residual = 0.063282, Final residual = 0.000506173, No Iterations 1
time step continuity errors : sum local = 3.56494e-15, global = 6.03574e-33, cumulative = 1.13576e-30
DILUPBiCGStab:  Solving for omega, Initial residual = 7.16661e-06, Final residual = 6.41974e-08, No Iterations 1
DILUPBiCGStab:  Solving for k, Initial residual = 0.00985797, Final residual = 7.60577e-06, No Iterations 1
ExecutionTime = 8.11812 s  ClockTime = 8 s

Courant Number mean: 4.71054e-14 max: 1.24701e-12
Time = 8.8s

DICPCG:  Solving for w, Initial residual = 0.0009716, Final residual = 1.51872e-06, No Iterations 1
DICPCG:  Solving for T, Initial residual = 0.0112256, Final residual = 1.53396e-05, No Iterations 1
Global Volume-Averaged Solid Fraction (Gs) = 0.0232283
GAMG:  Solving for p_rgh, Initial residual = 0.064102, Final residual = 0.000501822, No Iterations 1
time step continuity errors : sum local = 3.57353e-15, global = 4.57711e-32, cumulative = 1.18153e-30
DILUPBiCGStab:  Solving for omega, Initial residual = 6.64168e-06, Final residual = 6.09422e-08, No Iterations 1
DILUPBiCGStab:  Solving for k, Initial residual = 0.00990631, Final residual = 7.59266e-06, No Iterations 1
ExecutionTime = 8.1938 s  ClockTime = 8 s

Courant Number mean: 4.77678e-14 max: 1.31761e-12
Time = 8.9s

DICPCG:  Solving for w, Initial residual = 0.000906054, Final residual = 1.41748e-06, No Iterations 1
DICPCG:  Solving for T, Initial residual = 0.0111365, Final residual = 1.52222e-05, No Iterations 1
Global Volume-Averaged Solid Fraction (Gs) = 0.0232283
GAMG:  Solving for p_rgh, Initial residual = 0.0647592, Final residual = 0.000500124, No Iterations 1
time step continuity errors : sum local = 3.63729e-15, global = -1.43349e-32, cumulative = 1.1672e-30
DILUPBiCGStab:  Solving for omega, Initial residual = 6.17497e-06, Final residual = 5.73724e-08, No Iterations 1
DILUPBiCGStab:  Solving for k, Initial residual = 0.0099525, Final residual = 7.58127e-06, No Iterations 1
ExecutionTime = 8.26247 s  ClockTime = 8 s

Courant Number mean: 4.88627e-14 max: 1.267e-12
Time = 9s

DICPCG:  Solving for w, Initial residual = 0.000897382, Final residual = 1.39626e-06, No Iterations 1
DICPCG:  Solving for T, Initial residual = 0.011131, Final residual = 1.51825e-05, No Iterations 1
Global Volume-Averaged Solid Fraction (Gs) = 0.0232283
GAMG:  Solving for p_rgh, Initial residual = 0.0646478, Final residual = 0.000501999, No Iterations 1
time step continuity errors : sum local = 3.68298e-15, global = 6.62535e-32, cumulative = 1.23345e-30
DILUPBiCGStab:  Solving for omega, Initial residual = 5.74326e-06, Final residual = 5.35038e-08, No Iterations 1
DILUPBiCGStab:  Solving for k, Initial residual = 0.00999653, Final residual = 7.5715e-06, No Iterations 1
ExecutionTime = 8.54465 s  ClockTime = 9 s

Courant Number mean: 4.97481e-14 max: 1.36557e-12
Time = 9.1s

DICPCG:  Solving for w, Initial residual = 0.00085509, Final residual = 1.33153e-06, No Iterations 1
DICPCG:  Solving for T, Initial residual = 0.0111305, Final residual = 1.5189e-05, No Iterations 1
Global Volume-Averaged Solid Fraction (Gs) = 0.0232283
GAMG:  Solving for p_rgh, Initial residual = 0.0642794, Final residual = 0.000502769, No Iterations 1
time step continuity errors : sum local = 3.72973e-15, global = 7.4832e-32, cumulative = 1.30828e-30
DILUPBiCGStab:  Solving for omega, Initial residual = 5.33574e-06, Final residual = 4.93432e-08, No Iterations 1
DILUPBiCGStab:  Solving for k, Initial residual = 0.0100384, Final residual = 7.5631e-06, No Iterations 1
ExecutionTime = 8.61279 s  ClockTime = 9 s

Courant Number mean: 5.09846e-14 max: 1.39482e-12
Time = 9.2s

DICPCG:  Solving for w, Initial residual = 0.000843351, Final residual = 1.31137e-06, No Iterations 1
DICPCG:  Solving for T, Initial residual = 0.0110861, Final residual = 1.51251e-05, No Iterations 1
Global Volume-Averaged Solid Fraction (Gs) = 0.0232283
GAMG:  Solving for p_rgh, Initial residual = 0.0637491, Final residual = 0.000506946, No Iterations 1
time step continuity errors : sum local = 3.79331e-15, global = -1.22727e-31, cumulative = 1.18556e-30
DILUPBiCGStab:  Solving for omega, Initial residual = 4.98283e-06, Final residual = 4.521e-08, No Iterations 1
DILUPBiCGStab:  Solving for k, Initial residual = 0.0100783, Final residual = 7.55605e-06, No Iterations 1
ExecutionTime = 8.6807 s  ClockTime = 9 s

Courant Number mean: 5.18493e-14 max: 1.39653e-12
Time = 9.3s

DICPCG:  Solving for w, Initial residual = 0.00085009, Final residual = 1.33165e-06, No Iterations 1
DICPCG:  Solving for T, Initial residual = 0.0110668, Final residual = 1.51841e-05, No Iterations 1
Global Volume-Averaged Solid Fraction (Gs) = 0.0232283
GAMG:  Solving for p_rgh, Initial residual = 0.0639927, Final residual = 0.000504145, No Iterations 1
time step continuity errors : sum local = 3.78191e-15, global = 1.58103e-31, cumulative = 1.34366e-30
DILUPBiCGStab:  Solving for omega, Initial residual = 4.68455e-06, Final residual = 4.16545e-08, No Iterations 1
DILUPBiCGStab:  Solving for k, Initial residual = 0.010116, Final residual = 7.55044e-06, No Iterations 1
ExecutionTime = 8.74729 s  ClockTime = 9 s

Courant Number mean: 5.29262e-14 max: 1.35169e-12
Time = 9.4s

DICPCG:  Solving for w, Initial residual = 0.000858451, Final residual = 1.3417e-06, No Iterations 1
DICPCG:  Solving for T, Initial residual = 0.0111241, Final residual = 1.51713e-05, No Iterations 1
Global Volume-Averaged Solid Fraction (Gs) = 0.0232283
GAMG:  Solving for p_rgh, Initial residual = 0.0642355, Final residual = 0.000508244, No Iterations 1
time step continuity errors : sum local = 3.86949e-15, global = -1.49776e-31, cumulative = 1.19388e-30
DILUPBiCGStab:  Solving for omega, Initial residual = 4.40318e-06, Final residual = 3.86347e-08, No Iterations 1
DILUPBiCGStab:  Solving for k, Initial residual = 0.0101516, Final residual = 7.54621e-06, No Iterations 1
ExecutionTime = 8.81824 s  ClockTime = 9 s

Courant Number mean: 5.37087e-14 max: 1.40537e-12
Time = 9.5s

DICPCG:  Solving for w, Initial residual = 0.000809901, Final residual = 1.28477e-06, No Iterations 1
DICPCG:  Solving for T, Initial residual = 0.0111137, Final residual = 1.52506e-05, No Iterations 1
Global Volume-Averaged Solid Fraction (Gs) = 0.0232283
GAMG:  Solving for p_rgh, Initial residual = 0.0642096, Final residual = 0.000510014, No Iterations 1
time step continuity errors : sum local = 3.91301e-15, global = -5.17397e-31, cumulative = 6.76485e-31
DILUPBiCGStab:  Solving for omega, Initial residual = 4.17417e-06, Final residual = 3.58056e-08, No Iterations 1
DILUPBiCGStab:  Solving for k, Initial residual = 0.0101853, Final residual = 7.54354e-06, No Iterations 1
ExecutionTime = 8.88786 s  ClockTime = 9 s

Courant Number mean: 5.47495e-14 max: 1.37289e-12
Time = 9.6s

DICPCG:  Solving for w, Initial residual = 0.000811268, Final residual = 1.27597e-06, No Iterations 1
DICPCG:  Solving for T, Initial residual = 0.0110726, Final residual = 1.51151e-05, No Iterations 1
Global Volume-Averaged Solid Fraction (Gs) = 0.0232283
GAMG:  Solving for p_rgh, Initial residual = 0.0638535, Final residual = 0.000509218, No Iterations 1
time step continuity errors : sum local = 3.92371e-15, global = -5.04348e-31, cumulative = 1.72137e-31
DILUPBiCGStab:  Solving for omega, Initial residual = 3.96964e-06, Final residual = 3.34315e-08, No Iterations 1
DILUPBiCGStab:  Solving for k, Initial residual = 0.0102169, Final residual = 7.54344e-06, No Iterations 1
ExecutionTime = 8.95815 s  ClockTime = 9 s

Courant Number mean: 5.55166e-14 max: 1.43854e-12
Time = 9.7s

DICPCG:  Solving for w, Initial residual = 0.000811042, Final residual = 1.27815e-06, No Iterations 1
DICPCG:  Solving for T, Initial residual = 0.0110103, Final residual = 1.50999e-05, No Iterations 1
Global Volume-Averaged Solid Fraction (Gs) = 0.0232283
GAMG:  Solving for p_rgh, Initial residual = 0.0644335, Final residual = 0.000507981, No Iterations 1
time step continuity errors : sum local = 3.94899e-15, global = 2.84127e-31, cumulative = 4.56264e-31
DILUPBiCGStab:  Solving for omega, Initial residual = 3.79486e-06, Final residual = 3.12578e-08, No Iterations 1
DILUPBiCGStab:  Solving for k, Initial residual = 0.0102466, Final residual = 7.54498e-06, No Iterations 1
ExecutionTime = 9.02624 s  ClockTime = 9 s

Courant Number mean: 5.66657e-14 max: 1.42103e-12
Time = 9.8s

DICPCG:  Solving for w, Initial residual = 0.000804334, Final residual = 1.25959e-06, No Iterations 1
DICPCG:  Solving for T, Initial residual = 0.0109997, Final residual = 1.50043e-05, No Iterations 1
Global Volume-Averaged Solid Fraction (Gs) = 0.0232283
GAMG:  Solving for p_rgh, Initial residual = 0.063486, Final residual = 0.000502928, No Iterations 1
time step continuity errors : sum local = 3.96926e-15, global = -7.17024e-32, cumulative = 3.84562e-31
DILUPBiCGStab:  Solving for omega, Initial residual = 3.66784e-06, Final residual = 2.97692e-08, No Iterations 1
DILUPBiCGStab:  Solving for k, Initial residual = 0.0102744, Final residual = 7.54814e-06, No Iterations 1
ExecutionTime = 9.09479 s  ClockTime = 9 s

Courant Number mean: 5.75461e-14 max: 1.50599e-12
Time = 9.9s

DICPCG:  Solving for w, Initial residual = 0.000793889, Final residual = 1.2482e-06, No Iterations 1
DICPCG:  Solving for T, Initial residual = 0.0108674, Final residual = 1.48809e-05, No Iterations 1
Global Volume-Averaged Solid Fraction (Gs) = 0.0232283
GAMG:  Solving for p_rgh, Initial residual = 0.063637, Final residual = 0.000510116, No Iterations 1
time step continuity errors : sum local = 4.02676e-15, global = -1.04843e-31, cumulative = 2.79719e-31
DILUPBiCGStab:  Solving for omega, Initial residual = 3.56741e-06, Final residual = 2.88685e-08, No Iterations 1
DILUPBiCGStab:  Solving for k, Initial residual = 0.0103002, Final residual = 7.55275e-06, No Iterations 1
ExecutionTime = 9.16358 s  ClockTime = 9 s

Courant Number mean: 5.85822e-14 max: 1.49451e-12
Time = 10s

DICPCG:  Solving for w, Initial residual = 0.000805023, Final residual = 1.25704e-06, No Iterations 1
DICPCG:  Solving for T, Initial residual = 0.0108727, Final residual = 1.48309e-05, No Iterations 1
Global Volume-Averaged Solid Fraction (Gs) = 0.0232283
GAMG:  Solving for p_rgh, Initial residual = 0.0637297, Final residual = 0.000501503, No Iterations 1
[...]
DILUPBiCGStab:  Solving for omega, Initial residual = 9.43616e-09, Final residual = 9.43616e-09, No Iterations 0
DILUPBiCGStab:  Solving for k, Initial residual = 0.999884, Final residual = 0.0010923, No Iterations 1
bounding k, min: 6.86903e-17 max: 2.13778e-16 average: 1.76263e-16
ExecutionTime = 88.6624 s  ClockTime = 89 s

Courant Number mean: 1.51671e-12 max: 1.99633e-11
Time = 97.8s

DICPCG:  Solving for w, Initial residual = 0.000303904, Final residual = 4.07424e-07, No Iterations 1
DICPCG:  Solving for T, Initial residual = 0.00938037, Final residual = 1.26847e-05, No Iterations 1
Global Volume-Averaged Solid Fraction (Gs) = 0.0232283
GAMG:  Solving for p_rgh, Initial residual = 0.0611627, Final residual = 0.000430434, No Iterations 1
time step continuity errors : sum local = 1.01987e-14, global = -1.95826e-31, cumulative = 1.63158e-29
DILUPBiCGStab:  Solving for omega, Initial residual = 9.43616e-09, Final residual = 9.43616e-09, No Iterations 0
DILUPBiCGStab:  Solving for k, Initial residual = 0.999884, Final residual = 0.0010923, No Iterations 1
bounding k, min: 6.86903e-17 max: 2.13778e-16 average: 1.76263e-16
ExecutionTime = 88.7275 s  ClockTime = 89 s

Courant Number mean: 1.51764e-12 max: 1.99335e-11
Time = 97.9s

DICPCG:  Solving for w, Initial residual = 0.000298213, Final residual = 4.09535e-07, No Iterations 1
DICPCG:  Solving for T, Initial residual = 0.00938895, Final residual = 1.26811e-05, No Iterations 1
Global Volume-Averaged Solid Fraction (Gs) = 0.0232283
GAMG:  Solving for p_rgh, Initial residual = 0.0616798, Final residual = 0.000438638, No Iterations 1
time step continuity errors : sum local = 1.03831e-14, global = 9.63623e-31, cumulative = 1.72795e-29
DILUPBiCGStab:  Solving for omega, Initial residual = 9.43616e-09, Final residual = 9.43616e-09, No Iterations 0
DILUPBiCGStab:  Solving for k, Initial residual = 0.999884, Final residual = 0.0010923, No Iterations 1
bounding k, min: 6.86903e-17 max: 2.13778e-16 average: 1.76263e-16
ExecutionTime = 88.7961 s  ClockTime = 89 s

Courant Number mean: 1.51733e-12 max: 1.99515e-11
Time = 98s

DICPCG:  Solving for w, Initial residual = 0.000300799, Final residual = 4.04025e-07, No Iterations 1
DICPCG:  Solving for T, Initial residual = 0.00937592, Final residual = 1.26732e-05, No Iterations 1
Global Volume-Averaged Solid Fraction (Gs) = 0.0232283
GAMG:  Solving for p_rgh, Initial residual = 0.0614795, Final residual = 0.000431216, No Iterations 1
time step continuity errors : sum local = 1.02867e-14, global = -2.67305e-31, cumulative = 1.70121e-29
DILUPBiCGStab:  Solving for omega, Initial residual = 9.43616e-09, Final residual = 9.43616e-09, No Iterations 0
DILUPBiCGStab:  Solving for k, Initial residual = 0.999884, Final residual = 0.0010923, No Iterations 1
bounding k, min: 6.86903e-17 max: 2.13778e-16 average: 1.76263e-16
ExecutionTime = 89.065 s  ClockTime = 89 s

Courant Number mean: 1.5181e-12 max: 1.99312e-11
Time = 98.1s

DICPCG:  Solving for w, Initial residual = 0.000300284, Final residual = 4.12049e-07, No Iterations 1
DICPCG:  Solving for T, Initial residual = 0.00935928, Final residual = 1.2668e-05, No Iterations 1
Global Volume-Averaged Solid Fraction (Gs) = 0.0232283
GAMG:  Solving for p_rgh, Initial residual = 0.0616903, Final residual = 0.000435727, No Iterations 1
time step continuity errors : sum local = 1.03282e-14, global = 6.09163e-31, cumulative = 1.76213e-29
DILUPBiCGStab:  Solving for omega, Initial residual = 9.43616e-09, Final residual = 9.43616e-09, No Iterations 0
DILUPBiCGStab:  Solving for k, Initial residual = 0.999884, Final residual = 0.0010923, No Iterations 1
bounding k, min: 6.86903e-17 max: 2.13778e-16 average: 1.76263e-16
ExecutionTime = 89.1412 s  ClockTime = 89 s

Courant Number mean: 1.51815e-12 max: 1.99437e-11
Time = 98.2s

DICPCG:  Solving for w, Initial residual = 0.000301831, Final residual = 4.04884e-07, No Iterations 1
DICPCG:  Solving for T, Initial residual = 0.00938543, Final residual = 1.26723e-05, No Iterations 1
Global Volume-Averaged Solid Fraction (Gs) = 0.0232283
GAMG:  Solving for p_rgh, Initial residual = 0.0616869, Final residual = 0.000429273, No Iterations 1
time step continuity errors : sum local = 1.02552e-14, global = 7.12542e-33, cumulative = 1.76284e-29
DILUPBiCGStab:  Solving for omega, Initial residual = 9.43616e-09, Final residual = 9.43616e-09, No Iterations 0
DILUPBiCGStab:  Solving for k, Initial residual = 0.999884, Final residual = 0.0010923, No Iterations 1
bounding k, min: 6.86903e-17 max: 2.13778e-16 average: 1.76263e-16
ExecutionTime = 89.2153 s  ClockTime = 89 s

Courant Number mean: 1.51989e-12 max: 1.99282e-11
Time = 98.3s

DICPCG:  Solving for w, Initial residual = 0.000297179, Final residual = 4.08661e-07, No Iterations 1
DICPCG:  Solving for T, Initial residual = 0.00938505, Final residual = 1.26864e-05, No Iterations 1
Global Volume-Averaged Solid Fraction (Gs) = 0.0232283
GAMG:  Solving for p_rgh, Initial residual = 0.0615512, Final residual = 0.00043284, No Iterations 1
time step continuity errors : sum local = 1.02451e-14, global = 1.09258e-32, cumulative = 1.76394e-29
DILUPBiCGStab:  Solving for omega, Initial residual = 9.43616e-09, Final residual = 9.43616e-09, No Iterations 0
DILUPBiCGStab:  Solving for k, Initial residual = 0.999884, Final residual = 0.0010923, No Iterations 1
bounding k, min: 6.86903e-17 max: 2.13778e-16 average: 1.76263e-16
ExecutionTime = 89.2881 s  ClockTime = 89 s

Courant Number mean: 1.52031e-12 max: 1.99675e-11
Time = 98.4s

DICPCG:  Solving for w, Initial residual = 0.000303907, Final residual = 4.07428e-07, No Iterations 1
DICPCG:  Solving for T, Initial residual = 0.00937745, Final residual = 1.26824e-05, No Iterations 1
Global Volume-Averaged Solid Fraction (Gs) = 0.0232283
GAMG:  Solving for p_rgh, Initial residual = 0.0684801, Final residual = 0.00044609, No Iterations 1
time step continuity errors : sum local = 1.0482e-14, global = 3.24812e-31, cumulative = 1.79642e-29
DILUPBiCGStab:  Solving for omega, Initial residual = 9.43616e-09, Final residual = 9.43616e-09, No Iterations 0
DILUPBiCGStab:  Solving for k, Initial residual = 0.999884, Final residual = 0.0010923, No Iterations 1
bounding k, min: 6.86903e-17 max: 2.13778e-16 average: 1.76263e-16
ExecutionTime = 89.3567 s  ClockTime = 90 s

Courant Number mean: 1.52169e-12 max: 1.99622e-11
Time = 98.5s

DICPCG:  Solving for w, Initial residual = 0.00029821, Final residual = 4.09531e-07, No Iterations 1
DICPCG:  Solving for T, Initial residual = 0.00936765, Final residual = 1.26527e-05, No Iterations 1
Global Volume-Averaged Solid Fraction (Gs) = 0.0232283
GAMG:  Solving for p_rgh, Initial residual = 0.0630239, Final residual = 0.000439224, No Iterations 1
time step continuity errors : sum local = 1.03783e-14, global = 7.58604e-31, cumulative = 1.87228e-29
DILUPBiCGStab:  Solving for omega, Initial residual = 9.43616e-09, Final residual = 9.43616e-09, No Iterations 0
DILUPBiCGStab:  Solving for k, Initial residual = 0.999884, Final residual = 0.0010923, No Iterations 1
bounding k, min: 6.86903e-17 max: 2.13778e-16 average: 1.76263e-16
ExecutionTime = 89.4242 s  ClockTime = 90 s

Courant Number mean: 1.52135e-12 max: 1.99691e-11
Time = 98.6s

DICPCG:  Solving for w, Initial residual = 0.000300796, Final residual = 4.04022e-07, No Iterations 1
DICPCG:  Solving for T, Initial residual = 0.00937799, Final residual = 1.26701e-05, No Iterations 1
Global Volume-Averaged Solid Fraction (Gs) = 0.0232283
GAMG:  Solving for p_rgh, Initial residual = 0.0617518, Final residual = 0.000437633, No Iterations 1
time step continuity errors : sum local = 1.03649e-14, global = 5.89393e-31, cumulative = 1.93122e-29
DILUPBiCGStab:  Solving for omega, Initial residual = 9.43616e-09, Final residual = 9.43616e-09, No Iterations 0
DILUPBiCGStab:  Solving for k, Initial residual = 0.999884, Final residual = 0.0010923, No Iterations 1
bounding k, min: 6.86903e-17 max: 2.13778e-16 average: 1.76263e-16
ExecutionTime = 89.4996 s  ClockTime = 90 s

Courant Number mean: 1.52181e-12 max: 1.99858e-11
Time = 98.7s

DICPCG:  Solving for w, Initial residual = 0.000300287, Final residual = 4.12053e-07, No Iterations 1
DICPCG:  Solving for T, Initial residual = 0.0093754, Final residual = 1.26879e-05, No Iterations 1
Global Volume-Averaged Solid Fraction (Gs) = 0.0232283
GAMG:  Solving for p_rgh, Initial residual = 0.0616968, Final residual = 0.000436529, No Iterations 1
time step continuity errors : sum local = 1.03032e-14, global = 6.37386e-31, cumulative = 1.99496e-29
DILUPBiCGStab:  Solving for omega, Initial residual = 9.43616e-09, Final residual = 9.43616e-09, No Iterations 0
DILUPBiCGStab:  Solving for k, Initial residual = 0.999884, Final residual = 0.0010923, No Iterations 1
bounding k, min: 6.86903e-17 max: 2.13778e-16 average: 1.76263e-16
ExecutionTime = 89.5746 s  ClockTime = 90 s

Courant Number mean: 1.52073e-12 max: 2.00152e-11
Time = 98.8s

DICPCG:  Solving for w, Initial residual = 0.000301833, Final residual = 4.04888e-07, No Iterations 1
DICPCG:  Solving for T, Initial residual = 0.00938859, Final residual = 1.26813e-05, No Iterations 1
Global Volume-Averaged Solid Fraction (Gs) = 0.0232283
GAMG:  Solving for p_rgh, Initial residual = 0.0617747, Final residual = 0.000431042, No Iterations 1
time step continuity errors : sum local = 1.0272e-14, global = 7.94692e-31, cumulative = 2.07443e-29
DILUPBiCGStab:  Solving for omega, Initial residual = 9.43616e-09, Final residual = 9.43616e-09, No Iterations 0
DILUPBiCGStab:  Solving for k, Initial residual = 0.999884, Final residual = 0.0010923, No Iterations 1
bounding k, min: 6.86903e-17 max: 2.13778e-16 average: 1.76263e-16
ExecutionTime = 89.6478 s  ClockTime = 90 s

Courant Number mean: 1.52193e-12 max: 1.99803e-11
Time = 98.9s

DICPCG:  Solving for w, Initial residual = 0.000297176, Final residual = 4.08657e-07, No Iterations 1
DICPCG:  Solving for T, Initial residual = 0.00936547, Final residual = 1.26673e-05, No Iterations 1
Global Volume-Averaged Solid Fraction (Gs) = 0.0232283
GAMG:  Solving for p_rgh, Initial residual = 0.0617666, Final residual = 0.000433116, No Iterations 1
time step continuity errors : sum local = 1.0323e-14, global = -1.40555e-31, cumulative = 2.06037e-29
DILUPBiCGStab:  Solving for omega, Initial residual = 9.43616e-09, Final residual = 9.43616e-09, No Iterations 0
DILUPBiCGStab:  Solving for k, Initial residual = 0.999884, Final residual = 0.0010923, No Iterations 1
bounding k, min: 6.86903e-17 max: 2.13778e-16 average: 1.76263e-16
ExecutionTime = 89.7112 s  ClockTime = 90 s

Courant Number mean: 1.52167e-12 max: 2.00128e-11
Time = 99s

DICPCG:  Solving for w, Initial residual = 0.000303904, Final residual = 4.07424e-07, No Iterations 1
DICPCG:  Solving for T, Initial residual = 0.00937855, Final residual = 1.26812e-05, No Iterations 1
Global Volume-Averaged Solid Fraction (Gs) = 0.0232283
GAMG:  Solving for p_rgh, Initial residual = 0.0619795, Final residual = 0.000434668, No Iterations 1
time step continuity errors : sum local = 1.0243e-14, global = 4.42342e-31, cumulative = 2.1046e-29
DILUPBiCGStab:  Solving for omega, Initial residual = 9.43616e-09, Final residual = 9.43616e-09, No Iterations 0
DILUPBiCGStab:  Solving for k, Initial residual = 0.999884, Final residual = 0.0010923, No Iterations 1
bounding k, min: 6.86903e-17 max: 2.13778e-16 average: 1.76263e-16
ExecutionTime = 89.9806 s  ClockTime = 90 s

Courant Number mean: 1.52279e-12 max: 1.99851e-11
Time = 99.1s

DICPCG:  Solving for w, Initial residual = 0.000298213, Final residual = 4.09535e-07, No Iterations 1
DICPCG:  Solving for T, Initial residual = 0.00938638, Final residual = 1.26816e-05, No Iterations 1
Global Volume-Averaged Solid Fraction (Gs) = 0.0232283
GAMG:  Solving for p_rgh, Initial residual = 0.06192, Final residual = 0.000433825, No Iterations 1
time step continuity errors : sum local = 1.02343e-14, global = 1.24465e-30, cumulative = 2.22907e-29
DILUPBiCGStab:  Solving for omega, Initial residual = 9.43616e-09, Final residual = 9.43616e-09, No Iterations 0
DILUPBiCGStab:  Solving for k, Initial residual = 0.999884, Final residual = 0.0010923, No Iterations 1
bounding k, min: 6.86903e-17 max: 2.13778e-16 average: 1.76263e-16
ExecutionTime = 90.047 s  ClockTime = 90 s

Courant Number mean: 1.52245e-12 max: 1.9998e-11
Time = 99.2s

DICPCG:  Solving for w, Initial residual = 0.000300799, Final residual = 4.04025e-07, No Iterations 1
DICPCG:  Solving for T, Initial residual = 0.00937171, Final residual = 1.26703e-05, No Iterations 1
Global Volume-Averaged Solid Fraction (Gs) = 0.0232283
GAMG:  Solving for p_rgh, Initial residual = 0.0620296, Final residual = 0.000435593, No Iterations 1
time step continuity errors : sum local = 1.03647e-14, global = -9.11125e-33, cumulative = 2.22816e-29
DILUPBiCGStab:  Solving for omega, Initial residual = 9.43616e-09, Final residual = 9.43616e-09, No Iterations 0
DILUPBiCGStab:  Solving for k, Initial residual = 0.999884, Final residual = 0.0010923, No Iterations 1
bounding k, min: 6.86903e-17 max: 2.13778e-16 average: 1.76263e-16
ExecutionTime = 90.1098 s  ClockTime = 90 s

Courant Number mean: 1.52365e-12 max: 1.99693e-11
Time = 99.3s

DICPCG:  Solving for w, Initial residual = 0.000300284, Final residual = 4.12049e-07, No Iterations 1
DICPCG:  Solving for T, Initial residual = 0.0093619, Final residual = 1.26698e-05, No Iterations 1
Global Volume-Averaged Solid Fraction (Gs) = 0.0232283
GAMG:  Solving for p_rgh, Initial residual = 0.0617629, Final residual = 0.000435134, No Iterations 1
time step continuity errors : sum local = 1.02588e-14, global = -3.41495e-31, cumulative = 2.19401e-29
DILUPBiCGStab:  Solving for omega, Initial residual = 9.43616e-09, Final residual = 9.43616e-09, No Iterations 0
DILUPBiCGStab:  Solving for k, Initial residual = 0.999884, Final residual = 0.0010923, No Iterations 1
bounding k, min: 6.86903e-17 max: 2.13778e-16 average: 1.76263e-16
ExecutionTime = 90.1765 s  ClockTime = 90 s

Courant Number mean: 1.52344e-12 max: 2.0005e-11
Time = 99.4s

DICPCG:  Solving for w, Initial residual = 0.000301831, Final residual = 4.04884e-07, No Iterations 1
DICPCG:  Solving for T, Initial residual = 0.00939141, Final residual = 1.26752e-05, No Iterations 1
Global Volume-Averaged Solid Fraction (Gs) = 0.0232283
GAMG:  Solving for p_rgh, Initial residual = 0.0621925, Final residual = 0.000433474, No Iterations 1
time step continuity errors : sum local = 1.02798e-14, global = -4.3653e-31, cumulative = 2.15036e-29
DILUPBiCGStab:  Solving for omega, Initial residual = 9.43616e-09, Final residual = 9.43616e-09, No Iterations 0
DILUPBiCGStab:  Solving for k, Initial residual = 0.999884, Final residual = 0.0010923, No Iterations 1
bounding k, min: 6.86903e-17 max: 2.13778e-16 average: 1.76263e-16
ExecutionTime = 90.2428 s  ClockTime = 90 s

Courant Number mean: 1.5245e-12 max: 2.00073e-11
Time = 99.5s

DICPCG:  Solving for w, Initial residual = 0.000297179, Final residual = 4.08661e-07, No Iterations 1
DICPCG:  Solving for T, Initial residual = 0.00938323, Final residual = 1.26786e-05, No Iterations 1
Global Volume-Averaged Solid Fraction (Gs) = 0.0232283
GAMG:  Solving for p_rgh, Initial residual = 0.061997, Final residual = 0.000433864, No Iterations 1
time step continuity errors : sum local = 1.02073e-14, global = -6.34005e-31, cumulative = 2.08695e-29
DILUPBiCGStab:  Solving for omega, Initial residual = 9.43616e-09, Final residual = 9.43616e-09, No Iterations 0
DILUPBiCGStab:  Solving for k, Initial residual = 0.999884, Final residual = 0.0010923, No Iterations 1
bounding k, min: 6.86903e-17 max: 2.13778e-16 average: 1.76263e-16
ExecutionTime = 90.3081 s  ClockTime = 90 s

Courant Number mean: 1.52458e-12 max: 2.00278e-11
Time = 99.6s

DICPCG:  Solving for w, Initial residual = 0.000303907, Final residual = 4.07428e-07, No Iterations 1
DICPCG:  Solving for T, Initial residual = 0.00937489, Final residual = 1.26815e-05, No Iterations 1
Global Volume-Averaged Solid Fraction (Gs) = 0.0232283
GAMG:  Solving for p_rgh, Initial residual = 0.0619589, Final residual = 0.000435944, No Iterations 1
time step continuity errors : sum local = 1.0254e-14, global = -1.56706e-31, cumulative = 2.07128e-29
DILUPBiCGStab:  Solving for omega, Initial residual = 9.43616e-09, Final residual = 9.43616e-09, No Iterations 0
DILUPBiCGStab:  Solving for k, Initial residual = 0.999884, Final residual = 0.0010923, No Iterations 1
bounding k, min: 6.86903e-17 max: 2.13778e-16 average: 1.76263e-16
ExecutionTime = 90.3735 s  ClockTime = 91 s

Courant Number mean: 1.52536e-12 max: 2.00365e-11
Time = 99.7s

DICPCG:  Solving for w, Initial residual = 0.00029821, Final residual = 4.09531e-07, No Iterations 1
DICPCG:  Solving for T, Initial residual = 0.00936344, Final residual = 1.26556e-05, No Iterations 1
Global Volume-Averaged Solid Fraction (Gs) = 0.0232283
GAMG:  Solving for p_rgh, Initial residual = 0.0626085, Final residual = 0.000437535, No Iterations 1
time step continuity errors : sum local = 1.02855e-14, global = -4.45136e-32, cumulative = 2.06683e-29
DILUPBiCGStab:  Solving for omega, Initial residual = 9.43616e-09, Final residual = 9.43616e-09, No Iterations 0
DILUPBiCGStab:  Solving for k, Initial residual = 0.999884, Final residual = 0.0010923, No Iterations 1
bounding k, min: 6.86903e-17 max: 2.13778e-16 average: 1.76263e-16
ExecutionTime = 90.4389 s  ClockTime = 91 s

Courant Number mean: 1.52505e-12 max: 2.00605e-11
Time = 99.8s

DICPCG:  Solving for w, Initial residual = 0.000300796, Final residual = 4.04022e-07, No Iterations 1
DICPCG:  Solving for T, Initial residual = 0.00938061, Final residual = 1.26745e-05, No Iterations 1
Global Volume-Averaged Solid Fraction (Gs) = 0.0232283
GAMG:  Solving for p_rgh, Initial residual = 0.0621128, Final residual = 0.000438359, No Iterations 1
time step continuity errors : sum local = 1.03101e-14, global = 4.50194e-31, cumulative = 2.11185e-29
DILUPBiCGStab:  Solving for omega, Initial residual = 9.43616e-09, Final residual = 9.43616e-09, No Iterations 0
DILUPBiCGStab:  Solving for k, Initial residual = 0.999884, Final residual = 0.0010923, No Iterations 1
bounding k, min: 6.86903e-17 max: 2.13778e-16 average: 1.76263e-16
ExecutionTime = 90.5068 s  ClockTime = 91 s

Courant Number mean: 1.52628e-12 max: 2.00319e-11
Time = 99.9s

DICPCG:  Solving for w, Initial residual = 0.000300287, Final residual = 4.12053e-07, No Iterations 1
DICPCG:  Solving for T, Initial residual = 0.00938138, Final residual = 1.26903e-05, No Iterations 1
Global Volume-Averaged Solid Fraction (Gs) = 0.0232283
GAMG:  Solving for p_rgh, Initial residual = 0.0614403, Final residual = 0.000436699, No Iterations 1
time step continuity errors : sum local = 1.02776e-14, global = 4.99961e-31, cumulative = 2.16185e-29
DILUPBiCGStab:  Solving for omega, Initial residual = 9.43616e-09, Final residual = 9.43616e-09, No Iterations 0
DILUPBiCGStab:  Solving for k, Initial residual = 0.999884, Final residual = 0.0010923, No Iterations 1
bounding k, min: 6.86903e-17 max: 2.13778e-16 average: 1.76263e-16
ExecutionTime = 90.5843 s  ClockTime = 91 s

Courant Number mean: 1.52612e-12 max: 2.00346e-11
Time = 100s

DICPCG:  Solving for w, Initial residual = 0.000301833, Final residual = 4.04888e-07, No Iterations 1
DICPCG:  Solving for T, Initial residual = 0.00938677, Final residual = 1.26779e-05, No Iterations 1
Global Volume-Averaged Solid Fraction (Gs) = 0.0232283
GAMG:  Solving for p_rgh, Initial residual = 0.0620846, Final residual = 0.000439598, No Iterations 1
time step continuity errors : sum local = 1.02971e-14, global = 5.21477e-31, cumulative = 2.214e-29
DILUPBiCGStab:  Solving for omega, Initial residual = 9.43616e-09, Final residual = 9.43616e-09, No Iterations 0
DILUPBiCGStab:  Solving for k, Initial residual = 0.999884, Final residual = 0.0010923, No Iterations 1
bounding k, min: 6.86903e-17 max: 2.13778e-16 average: 1.76263e-16
ExecutionTime = 90.8488 s  ClockTime = 91 s

End

