/*---------------------------------------------------------------------------*\
  =========                 |
  \\      /  F ield         | OpenFOAM: The Open Source CFD Toolbox
   \\    /   O peration     | Website:  https://openfoam.org
    \\  /    A nd           | Version:  13
     \\/     M anipulation  |
\*---------------------------------------------------------------------------*/
Build  : 13-cde978a97c93
Exec   : teseLB_definitive
Date   : Jan 30 2026
Time   : 19:55:01
Host   : "leonardomaximinobernardo"
PID    : 21335
I/O    : uncollated
Case   : /home/leonardomaximinobernardo/My_projects/teseLB_quantico/teseLB/validationCase_definitive
nProcs : 1
sigFpe : Enabling floating point exception trapping (FOAM_SIGFPE).
fileModificationChecking : Monitoring run-time modified files using timeStampMaster (fileModificationSkew 10)
allowSystemOperations : Allowing user-supplied system call operations

// * * * * * * * * * * * * * * * * * * * * * * * * * * * * * * * * * * * * * //
Create time

Create mesh for time = 0


PIMPLE: Convergence criteria found
        p_rgh: tolerance 0.0001
        U: tolerance 0.0001
        h: tolerance 0.0001
        "(k|epsilon|omega)": tolerance 0.001


PIMPLE: Operating solver in steady-state mode with 1 outer corrector
PIMPLE: Operating solver in SIMPLE mode


Reading thermophysical properties

Reading field p_rgh

Reading field U

Reading/calculating face flux field phi

Reading field T

Reading field w

Creating viscosity model

Creating turbulence model

Selecting turbulence model type RAS
    Selecting RAS turbulence model kOmegaSST
Reading field alphat

Reading field difft


Reading g
No MRF models present

Courant Number mean: 0 max: 0
Selecting patchDistMethod meshWave

 Starting time loop

Courant Number mean: 0 max: 0
Time = 0.1s

DICPCG:  Solving for w, Initial residual = 0.47735, Final residual = 0.000435902, No Iterations 1
Global Volume-Averaged Solid Fraction (Gs) = 0
DICPCG:  Solving for T, Initial residual = 0.442926, Final residual = 0.000388858, No Iterations 1
GAMG:  Solving for p_rgh, Initial residual = 0, Final residual = 0, No Iterations 0
time step continuity errors : sum local = 0, global = 0, cumulative = 0
DILUPBiCGStab:  Solving for omega, Initial residual = 0.138111, Final residual = 0.00106755, No Iterations 1
DILUPBiCGStab:  Solving for k, Initial residual = 1, Final residual = 0.0169348, No Iterations 1
ExecutionTime = 0.312296 s  ClockTime = 0 s

Courant Number mean: 0 max: 0
Time = 0.2s

DICPCG:  Solving for w, Initial residual = 0.238351, Final residual = 0.000253759, No Iterations 1
Global Volume-Averaged Solid Fraction (Gs) = 0
DICPCG:  Solving for T, Initial residual = 0.288591, Final residual = 0.00028601, No Iterations 1
GAMG:  Solving for p_rgh, Initial residual = 0, Final residual = 0, No Iterations 0
time step continuity errors : sum local = 0, global = 0, cumulative = 0
DILUPBiCGStab:  Solving for omega, Initial residual = 0.0147491, Final residual = 8.99533e-06, No Iterations 1
DILUPBiCGStab:  Solving for k, Initial residual = 0.434035, Final residual = 0.000767473, No Iterations 1
ExecutionTime = 0.374491 s  ClockTime = 0 s

Courant Number mean: 0 max: 0
Time = 0.3s

DICPCG:  Solving for w, Initial residual = 0.125011, Final residual = 0.000153399, No Iterations 1
Global Volume-Averaged Solid Fraction (Gs) = 0
DICPCG:  Solving for T, Initial residual = 0.163851, Final residual = 0.000177245, No Iterations 1
GAMG:  Solving for p_rgh, Initial residual = 0, Final residual = 0, No Iterations 0
time step continuity errors : sum local = 0, global = 0, cumulative = 0
DILUPBiCGStab:  Solving for omega, Initial residual = 0.00123048, Final residual = 4.94174e-06, No Iterations 1
DILUPBiCGStab:  Solving for k, Initial residual = 0.0284451, Final residual = 0.000116234, No Iterations 1
ExecutionTime = 0.431833 s  ClockTime = 0 s

Courant Number mean: 0 max: 0
Time = 0.4s

DICPCG:  Solving for w, Initial residual = 0.0804451, Final residual = 0.000108504, No Iterations 1
Global Volume-Averaged Solid Fraction (Gs) = 0
DICPCG:  Solving for T, Initial residual = 0.109446, Final residual = 0.000123105, No Iterations 1
GAMG:  Solving for p_rgh, Initial residual = 0, Final residual = 0, No Iterations 0
time step continuity errors : sum local = 0, global = 0, cumulative = 0
DILUPBiCGStab:  Solving for omega, Initial residual = 0.000342885, Final residual = 2.89296e-06, No Iterations 1
DILUPBiCGStab:  Solving for k, Initial residual = 0.00975937, Final residual = 8.02679e-05, No Iterations 1
ExecutionTime = 0.491122 s  ClockTime = 0 s

Courant Number mean: 0 max: 0
Time = 0.5s

DICPCG:  Solving for w, Initial residual = 0.0573918, Final residual = 8.23565e-05, No Iterations 1
Global Volume-Averaged Solid Fraction (Gs) = 0
DICPCG:  Solving for T, Initial residual = 0.0820206, Final residual = 9.64963e-05, No Iterations 1
GAMG:  Solving for p_rgh, Initial residual = 0, Final residual = 0, No Iterations 0
time step continuity errors : sum local = 0, global = 0, cumulative = 0
DILUPBiCGStab:  Solving for omega, Initial residual = 0.000221688, Final residual = 2.00387e-06, No Iterations 1
DILUPBiCGStab:  Solving for k, Initial residual = 0.00513165, Final residual = 6.00578e-05, No Iterations 1
ExecutionTime = 0.553071 s  ClockTime = 0 s

Courant Number mean: 0 max: 0
Time = 0.6s

DICPCG:  Solving for w, Initial residual = 0.0441081, Final residual = 6.55683e-05, No Iterations 1
Global Volume-Averaged Solid Fraction (Gs) = 0
DICPCG:  Solving for T, Initial residual = 0.0655514, Final residual = 7.82122e-05, No Iterations 1
GAMG:  Solving for p_rgh, Initial residual = 0, Final residual = 0, No Iterations 0
time step continuity errors : sum local = 0, global = 0, cumulative = 0
DILUPBiCGStab:  Solving for omega, Initial residual = 0.000157716, Final residual = 1.42283e-06, No Iterations 1
DILUPBiCGStab:  Solving for k, Initial residual = 0.00365707, Final residual = 3.51103e-05, No Iterations 1
ExecutionTime = 0.616359 s  ClockTime = 0 s

Courant Number mean: 0 max: 0
Time = 0.7s

DICPCG:  Solving for w, Initial residual = 0.0347958, Final residual = 5.30693e-05, No Iterations 1
Global Volume-Averaged Solid Fraction (Gs) = 0
DICPCG:  Solving for T, Initial residual = 0.0551536, Final residual = 6.72737e-05, No Iterations 1
GAMG:  Solving for p_rgh, Initial residual = 0, Final residual = 0, No Iterations 0
time step continuity errors : sum local = 0, global = 0, cumulative = 0
DILUPBiCGStab:  Solving for omega, Initial residual = 0.000132465, Final residual = 1.06243e-06, No Iterations 1
DILUPBiCGStab:  Solving for k, Initial residual = 0.00315214, Final residual = 2.50287e-05, No Iterations 1
ExecutionTime = 0.678041 s  ClockTime = 0 s

Courant Number mean: 0 max: 0
Time = 0.8s

DICPCG:  Solving for w, Initial residual = 0.0291198, Final residual = 4.50067e-05, No Iterations 1
Global Volume-Averaged Solid Fraction (Gs) = 0
DICPCG:  Solving for T, Initial residual = 0.0477993, Final residual = 5.84228e-05, No Iterations 1
GAMG:  Solving for p_rgh, Initial residual = 0, Final residual = 0, No Iterations 0
time step continuity errors : sum local = 0, global = 0, cumulative = 0
DILUPBiCGStab:  Solving for omega, Initial residual = 0.000115505, Final residual = 7.7156e-07, No Iterations 1
DILUPBiCGStab:  Solving for k, Initial residual = 0.00298344, Final residual = 2.0702e-05, No Iterations 1
ExecutionTime = 0.74248 s  ClockTime = 0 s

Courant Number mean: 0 max: 0
Time = 0.9s

DICPCG:  Solving for w, Initial residual = 0.024484, Final residual = 3.83097e-05, No Iterations 1
Global Volume-Averaged Solid Fraction (Gs) = 0
DICPCG:  Solving for T, Initial residual = 0.0434172, Final residual = 5.35748e-05, No Iterations 1
GAMG:  Solving for p_rgh, Initial residual = 0, Final residual = 0, No Iterations 0
time step continuity errors : sum local = 0, global = 0, cumulative = 0
DILUPBiCGStab:  Solving for omega, Initial residual = 0.000104909, Final residual = 5.56889e-07, No Iterations 1
DILUPBiCGStab:  Solving for k, Initial residual = 0.00293458, Final residual = 1.82113e-05, No Iterations 1
ExecutionTime = 0.802637 s  ClockTime = 0 s

Courant Number mean: 0 max: 0
Time = 1s

DICPCG:  Solving for w, Initial residual = 0.0215577, Final residual = 3.38453e-05, No Iterations 1
Global Volume-Averaged Solid Fraction (Gs) = 0
DICPCG:  Solving for T, Initial residual = 0.038928, Final residual = 4.81672e-05, No Iterations 1
GAMG:  Solving for p_rgh, Initial residual = 0, Final residual = 0, No Iterations 0
time step continuity errors : sum local = 0, global = 0, cumulative = 0
DILUPBiCGStab:  Solving for omega, Initial residual = 9.95686e-05, Final residual = 4.15509e-07, No Iterations 1
DILUPBiCGStab:  Solving for k, Initial residual = 0.00293467, Final residual = 1.65468e-05, No Iterations 1
ExecutionTime = 0.93388 s  ClockTime = 1 s

Courant Number mean: 0 max: 0
Time = 1.1s

DICPCG:  Solving for w, Initial residual = 0.0191616, Final residual = 3.03099e-05, No Iterations 1
Global Volume-Averaged Solid Fraction (Gs) = 0
DICPCG:  Solving for T, Initial residual = 0.0361983, Final residual = 4.50833e-05, No Iterations 1
GAMG:  Solving for p_rgh, Initial residual = 0, Final residual = 0, No Iterations 0
time step continuity errors : sum local = 0, global = 0, cumulative = 0
DILUPBiCGStab:  Solving for omega, Initial residual = 9.71823e-05, Final residual = 3.3626e-07, No Iterations 1
DILUPBiCGStab:  Solving for k, Initial residual = 0.00296841, Final residual = 1.57053e-05, No Iterations 1
ExecutionTime = 1.00109 s  ClockTime = 1 s

Courant Number mean: 0 max: 0
Time = 1.2s

DICPCG:  Solving for w, Initial residual = 0.0173655, Final residual = 2.7528e-05, No Iterations 1
Global Volume-Averaged Solid Fraction (Gs) = 0
DICPCG:  Solving for T, Initial residual = 0.0335145, Final residual = 4.15349e-05, No Iterations 1
GAMG:  Solving for p_rgh, Initial residual = 0, Final residual = 0, No Iterations 0
time step continuity errors : sum local = 0, global = 0, cumulative = 0
DILUPBiCGStab:  Solving for omega, Initial residual = 9.58426e-05, Final residual = 2.94643e-07, No Iterations 1
DILUPBiCGStab:  Solving for k, Initial residual = 0.00301526, Final residual = 1.47698e-05, No Iterations 1
ExecutionTime = 1.06108 s  ClockTime = 1 s

Courant Number mean: 0 max: 0
Time = 1.3s

DICPCG:  Solving for w, Initial residual = 0.0155194, Final residual = 2.47895e-05, No Iterations 1
Global Volume-Averaged Solid Fraction (Gs) = 0
DICPCG:  Solving for T, Initial residual = 0.0308551, Final residual = 3.86094e-05, No Iterations 1
GAMG:  Solving for p_rgh, Initial residual = 0, Final residual = 0, No Iterations 0
time step continuity errors : sum local = 0, global = 0, cumulative = 0
DILUPBiCGStab:  Solving for omega, Initial residual = 9.58965e-05, Final residual = 2.88541e-07, No Iterations 1
DILUPBiCGStab:  Solving for k, Initial residual = 0.0030706, Final residual = 1.41447e-05, No Iterations 1
ExecutionTime = 1.12041 s  ClockTime = 1 s

Courant Number mean: 0 max: 0
Time = 1.4s

DICPCG:  Solving for w, Initial residual = 0.0144194, Final residual = 2.30733e-05, No Iterations 1
Global Volume-Averaged Solid Fraction (Gs) = 0
DICPCG:  Solving for T, Initial residual = 0.0293936, Final residual = 3.66298e-05, No Iterations 1
GAMG:  Solving for p_rgh, Initial residual = 0, Final residual = 0, No Iterations 0
time step continuity errors : sum local = 0, global = 0, cumulative = 0
DILUPBiCGStab:  Solving for omega, Initial residual = 9.59573e-05, Final residual = 2.86012e-07, No Iterations 1
DILUPBiCGStab:  Solving for k, Initial residual = 0.00312783, Final residual = 1.3632e-05, No Iterations 1
ExecutionTime = 1.18077 s  ClockTime = 1 s

Courant Number mean: 0 max: 0
Time = 1.5s

DICPCG:  Solving for w, Initial residual = 0.0134388, Final residual = 2.15629e-05, No Iterations 1
Global Volume-Averaged Solid Fraction (Gs) = 0
DICPCG:  Solving for T, Initial residual = 0.0278496, Final residual = 3.50137e-05, No Iterations 1
GAMG:  Solving for p_rgh, Initial residual = 0, Final residual = 0, No Iterations 0
time step continuity errors : sum local = 0, global = 0, cumulative = 0
DILUPBiCGStab:  Solving for omega, Initial residual = 9.56911e-05, Final residual = 2.80518e-07, No Iterations 1
DILUPBiCGStab:  Solving for k, Initial residual = 0.00319163, Final residual = 1.33682e-05, No Iterations 1
ExecutionTime = 1.24143 s  ClockTime = 1 s

Courant Number mean: 0 max: 0
Time = 1.6s

DICPCG:  Solving for w, Initial residual = 0.0124237, Final residual = 1.99725e-05, No Iterations 1
Global Volume-Averaged Solid Fraction (Gs) = 0
DICPCG:  Solving for T, Initial residual = 0.0264576, Final residual = 3.31906e-05, No Iterations 1
GAMG:  Solving for p_rgh, Initial residual = 0, Final residual = 0, No Iterations 0
time step continuity errors : sum local = 0, global = 0, cumulative = 0
DILUPBiCGStab:  Solving for omega, Initial residual = 9.51561e-05, Final residual = 2.73507e-07, No Iterations 1
DILUPBiCGStab:  Solving for k, Initial residual = 0.00326061, Final residual = 1.2854e-05, No Iterations 1
ExecutionTime = 1.30338 s  ClockTime = 1 s

Courant Number mean: 0 max: 0
Time = 1.7s

DICPCG:  Solving for w, Initial residual = 0.0112861, Final residual = 1.82013e-05, No Iterations 1
Global Volume-Averaged Solid Fraction (Gs) = 0
DICPCG:  Solving for T, Initial residual = 0.0252778, Final residual = 3.19088e-05, No Iterations 1
GAMG:  Solving for p_rgh, Initial residual = 0, Final residual = 0, No Iterations 0
time step continuity errors : sum local = 0, global = 0, cumulative = 0
DILUPBiCGStab:  Solving for omega, Initial residual = 9.44135e-05, Final residual = 2.65437e-07, No Iterations 1
DILUPBiCGStab:  Solving for k, Initial residual = 0.00333248, Final residual = 1.25364e-05, No Iterations 1
ExecutionTime = 1.36371 s  ClockTime = 1 s

Courant Number mean: 0 max: 0
Time = 1.8s

DICPCG:  Solving for w, Initial residual = 0.0107131, Final residual = 1.73119e-05, No Iterations 1
Global Volume-Averaged Solid Fraction (Gs) = 0
DICPCG:  Solving for T, Initial residual = 0.0243854, Final residual = 3.06722e-05, No Iterations 1
GAMG:  Solving for p_rgh, Initial residual = 0, Final residual = 0, No Iterations 0
time step continuity errors : sum local = 0, global = 0, cumulative = 0
DILUPBiCGStab:  Solving for omega, Initial residual = 9.35183e-05, Final residual = 2.57179e-07, No Iterations 1
DILUPBiCGStab:  Solving for k, Initial residual = 0.00340471, Final residual = 1.22186e-05, No Iterations 1
ExecutionTime = 1.42258 s  ClockTime = 1 s

Courant Number mean: 0 max: 0
Time = 1.9s

DICPCG:  Solving for w, Initial residual = 0.0100472, Final residual = 1.62481e-05, No Iterations 1
Global Volume-Averaged Solid Fraction (Gs) = 0
DICPCG:  Solving for T, Initial residual = 0.023545, Final residual = 2.96064e-05, No Iterations 1
GAMG:  Solving for p_rgh, Initial residual = 0, Final residual = 0, No Iterations 0
time step continuity errors : sum local = 0, global = 0, cumulative = 0
DILUPBiCGStab:  Solving for omega, Initial residual = 9.25074e-05, Final residual = 2.4846e-07, No Iterations 1
DILUPBiCGStab:  Solving for k, Initial residual = 0.00348171, Final residual = 1.20738e-05, No Iterations 1
ExecutionTime = 1.48128 s  ClockTime = 1 s

Courant Number mean: 0 max: 0
Time = 2s

DICPCG:  Solving for w, Initial residual = 0.00950903, Final residual = 1.53675e-05, No Iterations 1
Global Volume-Averaged Solid Fraction (Gs) = 0
DICPCG:  Solving for T, Initial residual = 0.0230046, Final residual = 2.8854e-05, No Iterations 1
GAMG:  Solving for p_rgh, Initial residual = 0, Final residual = 0, No Iterations 0
time step continuity errors : sum local = 0, global = 0, cumulative = 0
DILUPBiCGStab:  Solving for omega, Initial residual = 9.14364e-05, Final residual = 2.39944e-07, No Iterations 1
DILUPBiCGStab:  Solving for k, Initial residual = 0.00356224, Final residual = 1.16256e-05, No Iterations 1
ExecutionTime = 1.60748 s  ClockTime = 1 s

Courant Number mean: 0 max: 0
Time = 2.1s

DICPCG:  Solving for w, Initial residual = 0.00881002, Final residual = 1.42124e-05, No Iterations 1
Global Volume-Averaged Solid Fraction (Gs) = 0
DICPCG:  Solving for T, Initial residual = 0.0222424, Final residual = 2.7931e-05, No Iterations 1
GAMG:  Solving for p_rgh, Initial residual = 0, Final residual = 0, No Iterations 0
time step continuity errors : sum local = 0, global = 0, cumulative = 0
DILUPBiCGStab:  Solving for omega, Initial residual = 9.02923e-05, Final residual = 2.32132e-07, No Iterations 1
DILUPBiCGStab:  Solving for k, Initial residual = 0.00364297, Final residual = 1.13653e-05, No Iterations 1
ExecutionTime = 1.66812 s  ClockTime = 1 s

Courant Number mean: 0 max: 0
Time = 2.2s

DICPCG:  Solving for w, Initial residual = 0.00835805, Final residual = 1.34657e-05, No Iterations 1
Global Volume-Averaged Solid Fraction (Gs) = 0
DICPCG:  Solving for T, Initial residual = 0.0217587, Final residual = 2.73932e-05, No Iterations 1
GAMG:  Solving for p_rgh, Initial residual = 0, Final residual = 0, No Iterations 0
time step continuity errors : sum local = 0, global = 0, cumulative = 0
DILUPBiCGStab:  Solving for omega, Initial residual = 8.90877e-05, Final residual = 2.24108e-07, No Iterations 1
DILUPBiCGStab:  Solving for k, Initial residual = 0.00372873, Final residual = 1.12727e-05, No Iterations 1
ExecutionTime = 1.72447 s  ClockTime = 1 s

Courant Number mean: 0 max: 0
Time = 2.3s

DICPCG:  Solving for w, Initial residual = 0.00803294, Final residual = 1.30017e-05, No Iterations 1
Global Volume-Averaged Solid Fraction (Gs) = 0
DICPCG:  Solving for T, Initial residual = 0.0212771, Final residual = 2.67493e-05, No Iterations 1
GAMG:  Solving for p_rgh, Initial residual = 0, Final residual = 0, No Iterations 0
time step continuity errors : sum local = 0, global = 0, cumulative = 0
DILUPBiCGStab:  Solving for omega, Initial residual = 8.78564e-05, Final residual = 2.16335e-07, No Iterations 1
DILUPBiCGStab:  Solving for k, Initial residual = 0.00381732, Final residual = 1.0905e-05, No Iterations 1
ExecutionTime = 1.7842 s  ClockTime = 1 s

Courant Number mean: 0 max: 0
Time = 2.4s

DICPCG:  Solving for w, Initial residual = 0.00778569, Final residual = 1.25398e-05, No Iterations 1
Global Volume-Averaged Solid Fraction (Gs) = 0
DICPCG:  Solving for T, Initial residual = 0.0209137, Final residual = 2.63728e-05, No Iterations 1
GAMG:  Solving for p_rgh, Initial residual = 0, Final residual = 0, No Iterations 0
time step continuity errors : sum local = 0, global = 0, cumulative = 0
DILUPBiCGStab:  Solving for omega, Initial residual = 8.65726e-05, Final residual = 2.08687e-07, No Iterations 1
DILUPBiCGStab:  Solving for k, Initial residual = 0.00390519, Final residual = 1.06887e-05, No Iterations 1
ExecutionTime = 1.84342 s  ClockTime = 1 s

Courant Number mean: 0 max: 0
Time = 2.5s

DICPCG:  Solving for w, Initial residual = 0.0073006, Final residual = 1.17685e-05, No Iterations 1
Global Volume-Averaged Solid Fraction (Gs) = 0
DICPCG:  Solving for T, Initial residual = 0.0204001, Final residual = 2.56243e-05, No Iterations 1
GAMG:  Solving for p_rgh, Initial residual = 0, Final residual = 0, No Iterations 0
time step continuity errors : sum local = 0, global = 0, cumulative = 0
DILUPBiCGStab:  Solving for omega, Initial residual = 8.52506e-05, Final residual = 2.01669e-07, No Iterations 1
DILUPBiCGStab:  Solving for k, Initial residual = 0.00399792, Final residual = 1.06292e-05, No Iterations 1
ExecutionTime = 1.90378 s  ClockTime = 2 s

Courant Number mean: 0 max: 0
Time = 2.6s

DICPCG:  Solving for w, Initial residual = 0.00704937, Final residual = 1.13373e-05, No Iterations 1
Global Volume-Averaged Solid Fraction (Gs) = 0
DICPCG:  Solving for T, Initial residual = 0.020146, Final residual = 2.53307e-05, No Iterations 1
GAMG:  Solving for p_rgh, Initial residual = 0, Final residual = 0, No Iterations 0
time step continuity errors : sum local = 0, global = 0, cumulative = 0
DILUPBiCGStab:  Solving for omega, Initial residual = 8.3915e-05, Final residual = 1.94749e-07, No Iterations 1
DILUPBiCGStab:  Solving for k, Initial residual = 0.00409312, Final residual = 1.03119e-05, No Iterations 1
ExecutionTime = 1.9633 s  ClockTime = 2 s

Courant Number mean: 0 max: 0
Time = 2.7s

DICPCG:  Solving for w, Initial residual = 0.00650088, Final residual = 1.0497e-05, No Iterations 1
Global Volume-Averaged Solid Fraction (Gs) = 0
DICPCG:  Solving for T, Initial residual = 0.0196673, Final residual = 2.47642e-05, No Iterations 1
GAMG:  Solving for p_rgh, Initial residual = 0, Final residual = 0, No Iterations 0
time step continuity errors : sum local = 0, global = 0, cumulative = 0
DILUPBiCGStab:  Solving for omega, Initial residual = 8.25348e-05, Final residual = 1.87942e-07, No Iterations 1
DILUPBiCGStab:  Solving for k, Initial residual = 0.00418673, Final residual = 1.01392e-05, No Iterations 1
ExecutionTime = 2.02286 s  ClockTime = 2 s

Courant Number mean: 0 max: 0
Time = 2.8s

DICPCG:  Solving for w, Initial residual = 0.00631472, Final residual = 1.01792e-05, No Iterations 1
Global Volume-Averaged Solid Fraction (Gs) = 0
DICPCG:  Solving for T, Initial residual = 0.0193401, Final residual = 2.4349e-05, No Iterations 1
GAMG:  Solving for p_rgh, Initial residual = 0, Final residual = 0, No Iterations 0
time step continuity errors : sum local = 0, global = 0, cumulative = 0
DILUPBiCGStab:  Solving for omega, Initial residual = 8.11316e-05, Final residual = 1.81544e-07, No Iterations 1
DILUPBiCGStab:  Solving for k, Initial residual = 0.00428531, Final residual = 1.01156e-05, No Iterations 1
ExecutionTime = 2.08153 s  ClockTime = 2 s

Courant Number mean: 0 max: 0
Time = 2.9s

DICPCG:  Solving for w, Initial residual = 0.00603515, Final residual = 9.74953e-06, No Iterations 1
Global Volume-Averaged Solid Fraction (Gs) = 0
DICPCG:  Solving for T, Initial residual = 0.0191473, Final residual = 2.41854e-05, No Iterations 1
GAMG:  Solving for p_rgh, Initial residual = 0, Final residual = 0, No Iterations 0
time step continuity errors : sum local = 0, global = 0, cumulative = 0
DILUPBiCGStab:  Solving for omega, Initial residual = 7.97274e-05, Final residual = 1.75402e-07, No Iterations 1
DILUPBiCGStab:  Solving for k, Initial residual = 0.00438598, Final residual = 9.83562e-06, No Iterations 1
ExecutionTime = 2.14052 s  ClockTime = 2 s

Courant Number mean: 0 max: 0
Time = 3s

DICPCG:  Solving for w, Initial residual = 0.00567592, Final residual = 9.113e-06, No Iterations 1
Global Volume-Averaged Solid Fraction (Gs) = 0
DICPCG:  Solving for T, Initial residual = 0.0188085, Final residual = 2.37005e-05, No Iterations 1
GAMG:  Solving for p_rgh, Initial residual = 0, Final residual = 0, No Iterations 0
time step continuity errors : sum local = 0, global = 0, cumulative = 0
DILUPBiCGStab:  Solving for omega, Initial residual = 7.82814e-05, Final residual = 1.69417e-07, No Iterations 1
DILUPBiCGStab:  Solving for k, Initial residual = 0.00448467, Final residual = 9.73539e-06, No Iterations 1
ExecutionTime = 2.26582 s  ClockTime = 2 s

Courant Number mean: 0 max: 0
Time = 3.1s

DICPCG:  Solving for w, Initial residual = 0.00524779, Final residual = 8.47269e-06, No Iterations 1
Global Volume-Averaged Solid Fraction (Gs) = 0
DICPCG:  Solving for T, Initial residual = 0.0185951, Final residual = 2.34091e-05, No Iterations 1
GAMG:  Solving for p_rgh, Initial residual = 0, Final residual = 0, No Iterations 0
time step continuity errors : sum local = 0, global = 0, cumulative = 0
DILUPBiCGStab:  Solving for omega, Initial residual = 7.68209e-05, Final residual = 1.6386e-07, No Iterations 1
DILUPBiCGStab:  Solving for k, Initial residual = 0.00458785, Final residual = 9.70825e-06, No Iterations 1
ExecutionTime = 2.32682 s  ClockTime = 2 s

Courant Number mean: 0 max: 0
Time = 3.2s

DICPCG:  Solving for w, Initial residual = 0.00511013, Final residual = 8.25706e-06, No Iterations 1
Global Volume-Averaged Solid Fraction (Gs) = 0
DICPCG:  Solving for T, Initial residual = 0.0183513, Final residual = 2.30265e-05, No Iterations 1
GAMG:  Solving for p_rgh, Initial residual = 0, Final residual = 0, No Iterations 0
time step continuity errors : sum local = 0, global = 0, cumulative = 0
DILUPBiCGStab:  Solving for omega, Initial residual = 7.53564e-05, Final residual = 1.58577e-07, No Iterations 1
DILUPBiCGStab:  Solving for k, Initial residual = 0.0046928, Final residual = 9.46521e-06, No Iterations 1
ExecutionTime = 2.38722 s  ClockTime = 2 s

Courant Number mean: 0 max: 0
Time = 3.3s

DICPCG:  Solving for w, Initial residual = 0.00480832, Final residual = 7.77743e-06, No Iterations 1
Global Volume-Averaged Solid Fraction (Gs) = 0
DICPCG:  Solving for T, Initial residual = 0.0180916, Final residual = 2.26457e-05, No Iterations 1
GAMG:  Solving for p_rgh, Initial residual = 0, Final residual = 0, No Iterations 0
time step continuity errors : sum local = 0, global = 0, cumulative = 0
DILUPBiCGStab:  Solving for omega, Initial residual = 7.38539e-05, Final residual = 1.53489e-07, No Iterations 1
DILUPBiCGStab:  Solving for k, Initial residual = 0.00479528, Final residual = 9.42716e-06, No Iterations 1
ExecutionTime = 2.4471 s  ClockTime = 2 s

Courant Number mean: 0 max: 0
Time = 3.4s

DICPCG:  Solving for w, Initial residual = 0.00466158, Final residual = 7.50285e-06, No Iterations 1
Global Volume-Averaged Solid Fraction (Gs) = 0
DICPCG:  Solving for T, Initial residual = 0.0178, Final residual = 2.23801e-05, No Iterations 1
GAMG:  Solving for p_rgh, Initial residual = 0, Final residual = 0, No Iterations 0
time step continuity errors : sum local = 0, global = 0, cumulative = 0
DILUPBiCGStab:  Solving for omega, Initial residual = 7.23458e-05, Final residual = 1.48631e-07, No Iterations 1
DILUPBiCGStab:  Solving for k, Initial residual = 0.004902, Final residual = 9.41772e-06, No Iterations 1
ExecutionTime = 2.50692 s  ClockTime = 2 s

Courant Number mean: 0 max: 0
Time = 3.5s

DICPCG:  Solving for w, Initial residual = 0.00456576, Final residual = 7.39191e-06, No Iterations 1
Global Volume-Averaged Solid Fraction (Gs) = 0
DICPCG:  Solving for T, Initial residual = 0.017722, Final residual = 2.22614e-05, No Iterations 1
GAMG:  Solving for p_rgh, Initial residual = 0, Final residual = 0, No Iterations 0
time step continuity errors : sum local = 0, global = 0, cumulative = 0
DILUPBiCGStab:  Solving for omega, Initial residual = 7.08117e-05, Final residual = 1.4394e-07, No Iterations 1
DILUPBiCGStab:  Solving for k, Initial residual = 0.00500628, Final residual = 9.24827e-06, No Iterations 1
ExecutionTime = 2.56698 s  ClockTime = 2 s

Courant Number mean: 0 max: 0
Time = 3.6s

DICPCG:  Solving for w, Initial residual = 0.00444058, Final residual = 7.17553e-06, No Iterations 1
Global Volume-Averaged Solid Fraction (Gs) = 0
DICPCG:  Solving for T, Initial residual = 0.0176485, Final residual = 2.211e-05, No Iterations 1
GAMG:  Solving for p_rgh, Initial residual = 0, Final residual = 0, No Iterations 0
time step continuity errors : sum local = 0, global = 0, cumulative = 0
DILUPBiCGStab:  Solving for omega, Initial residual = 6.92806e-05, Final residual = 1.39434e-07, No Iterations 1
DILUPBiCGStab:  Solving for k, Initial residual = 0.00511499, Final residual = 9.28121e-06, No Iterations 1
ExecutionTime = 2.6284 s  ClockTime = 2 s

Courant Number mean: 0 max: 0
Time = 3.7s

DICPCG:  Solving for w, Initial residual = 0.00426993, Final residual = 6.93616e-06, No Iterations 1
Global Volume-Averaged Solid Fraction (Gs) = 0
DICPCG:  Solving for T, Initial residual = 0.0174205, Final residual = 2.18067e-05, No Iterations 1
GAMG:  Solving for p_rgh, Initial residual = 0, Final residual = 0, No Iterations 0
time step continuity errors : sum local = 0, global = 0, cumulative = 0
DILUPBiCGStab:  Solving for omega, Initial residual = 6.77586e-05, Final residual = 1.35141e-07, No Iterations 1
DILUPBiCGStab:  Solving for k, Initial residual = 0.0052252, Final residual = 9.055e-06, No Iterations 1
ExecutionTime = 2.68764 s  ClockTime = 2 s

Courant Number mean: 0 max: 0
Time = 3.8s

DICPCG:  Solving for w, Initial residual = 0.00412812, Final residual = 6.70234e-06, No Iterations 1
Global Volume-Averaged Solid Fraction (Gs) = 0
DICPCG:  Solving for T, Initial residual = 0.0173113, Final residual = 2.17028e-05, No Iterations 1
GAMG:  Solving for p_rgh, Initial residual = 0, Final residual = 0, No Iterations 0
time step continuity errors : sum local = 0, global = 0, cumulative = 0
DILUPBiCGStab:  Solving for omega, Initial residual = 6.62016e-05, Final residual = 1.30922e-07, No Iterations 1
DILUPBiCGStab:  Solving for k, Initial residual = 0.00533209, Final residual = 9.07886e-06, No Iterations 1
ExecutionTime = 2.74687 s  ClockTime = 2 s

Courant Number mean: 0 max: 0
Time = 3.9s

DICPCG:  Solving for w, Initial residual = 0.00391057, Final residual = 6.37265e-06, No Iterations 1
Global Volume-Averaged Solid Fraction (Gs) = 0
DICPCG:  Solving for T, Initial residual = 0.0171627, Final residual = 2.15454e-05, No Iterations 1
GAMG:  Solving for p_rgh, Initial residual = 0, Final residual = 0, No Iterations 0
time step continuity errors : sum local = 0, global = 0, cumulative = 0
DILUPBiCGStab:  Solving for omega, Initial residual = 6.46522e-05, Final residual = 1.26869e-07, No Iterations 1
DILUPBiCGStab:  Solving for k, Initial residual = 0.00544298, Final residual = 9.08438e-06, No Iterations 1
ExecutionTime = 2.80621 s  ClockTime = 2 s

Courant Number mean: 0 max: 0
Time = 4s

DICPCG:  Solving for w, Initial residual = 0.0036955, Final residual = 5.97948e-06, No Iterations 1
Global Volume-Averaged Solid Fraction (Gs) = 0
DICPCG:  Solving for T, Initial residual = 0.0169474, Final residual = 2.12532e-05, No Iterations 1
GAMG:  Solving for p_rgh, Initial residual = 0, Final residual = 0, No Iterations 0
time step continuity errors : sum local = 0, global = 0, cumulative = 0
DILUPBiCGStab:  Solving for omega, Initial residual = 6.30807e-05, Final residual = 1.23002e-07, No Iterations 1
DILUPBiCGStab:  Solving for k, Initial residual = 0.005551, Final residual = 8.9849e-06, No Iterations 1
ExecutionTime = 2.93233 s  ClockTime = 3 s

Courant Number mean: 0 max: 0
Time = 4.1s

DICPCG:  Solving for w, Initial residual = 0.00366206, Final residual = 5.93361e-06, No Iterations 1
Global Volume-Averaged Solid Fraction (Gs) = 0
DICPCG:  Solving for T, Initial residual = 0.0169434, Final residual = 2.12887e-05, No Iterations 1
GAMG:  Solving for p_rgh, Initial residual = 0, Final residual = 0, No Iterations 0
time step continuity errors : sum local = 0, global = 0, cumulative = 0
DILUPBiCGStab:  Solving for omega, Initial residual = 6.14925e-05, Final residual = 1.194e-07, No Iterations 1
DILUPBiCGStab:  Solving for k, Initial residual = 0.00565844, Final residual = 9.01639e-06, No Iterations 1
ExecutionTime = 2.99196 s  ClockTime = 3 s

Courant Number mean: 0 max: 0
Time = 4.2s

DICPCG:  Solving for w, Initial residual = 0.00345753, Final residual = 5.58796e-06, No Iterations 1
Global Volume-Averaged Solid Fraction (Gs) = 0
DICPCG:  Solving for T, Initial residual = 0.0167213, Final residual = 2.09923e-05, No Iterations 1
GAMG:  Solving for p_rgh, Initial residual = 0, Final residual = 0, No Iterations 0
time step continuity errors : sum local = 0, global = 0, cumulative = 0
DILUPBiCGStab:  Solving for omega, Initial residual = 5.99025e-05, Final residual = 1.15908e-07, No Iterations 1
DILUPBiCGStab:  Solving for k, Initial residual = 0.00576652, Final residual = 9.01254e-06, No Iterations 1
ExecutionTime = 3.05018 s  ClockTime = 3 s

Courant Number mean: 0 max: 0
Time = 4.3s

DICPCG:  Solving for w, Initial residual = 0.00327292, Final residual = 5.30964e-06, No Iterations 1
Global Volume-Averaged Solid Fraction (Gs) = 0
DICPCG:  Solving for T, Initial residual = 0.0166151, Final residual = 2.08384e-05, No Iterations 1
GAMG:  Solving for p_rgh, Initial residual = 0, Final residual = 0, No Iterations 0
time step continuity errors : sum local = 0, global = 0, cumulative = 0
DILUPBiCGStab:  Solving for omega, Initial residual = 5.83136e-05, Final residual = 1.12429e-07, No Iterations 1
DILUPBiCGStab:  Solving for k, Initial residual = 0.00587512, Final residual = 9.00897e-06, No Iterations 1
ExecutionTime = 3.10938 s  ClockTime = 3 s

Courant Number mean: 0 max: 0
Time = 4.4s

DICPCG:  Solving for w, Initial residual = 0.00309817, Final residual = 5.00931e-06, No Iterations 1
Global Volume-Averaged Solid Fraction (Gs) = 0
DICPCG:  Solving for T, Initial residual = 0.0166864, Final residual = 2.08956e-05, No Iterations 1
GAMG:  Solving for p_rgh, Initial residual = 0, Final residual = 0, No Iterations 0
time step continuity errors : sum local = 0, global = 0, cumulative = 0
DILUPBiCGStab:  Solving for omega, Initial residual = 5.67135e-05, Final residual = 1.08533e-07, No Iterations 1
DILUPBiCGStab:  Solving for k, Initial residual = 0.00598204, Final residual = 8.93826e-06, No Iterations 1
ExecutionTime = 3.16781 s  ClockTime = 3 s

Courant Number mean: 0 max: 0
Time = 4.5s

DICPCG:  Solving for w, Initial residual = 0.00295612, Final residual = 4.79386e-06, No Iterations 1
Global Volume-Averaged Solid Fraction (Gs) = 0
DICPCG:  Solving for T, Initial residual = 0.0164852, Final residual = 2.06424e-05, No Iterations 1
GAMG:  Solving for p_rgh, Initial residual = 0, Final residual = 0, No Iterations 0
time step continuity errors : sum local = 0, global = 0, cumulative = 0
DILUPBiCGStab:  Solving for omega, Initial residual = 5.51687e-05, Final residual = 1.049e-07, No Iterations 1
DILUPBiCGStab:  Solving for k, Initial residual = 0.00609644, Final residual = 8.92251e-06, No Iterations 1
ExecutionTime = 3.22602 s  ClockTime = 3 s

Courant Number mean: 0 max: 0
Time = 4.6s

DICPCG:  Solving for w, Initial residual = 0.0030153, Final residual = 4.88578e-06, No Iterations 1
Global Volume-Averaged Solid Fraction (Gs) = 0
DICPCG:  Solving for T, Initial residual = 0.0163549, Final residual = 2.05428e-05, No Iterations 1
GAMG:  Solving for p_rgh, Initial residual = 0, Final residual = 0, No Iterations 0
time step continuity errors : sum local = 0, global = 0, cumulative = 0
DILUPBiCGStab:  Solving for omega, Initial residual = 5.3643e-05, Final residual = 1.01787e-07, No Iterations 1
DILUPBiCGStab:  Solving for k, Initial residual = 0.00621195, Final residual = 8.87948e-06, No Iterations 1
ExecutionTime = 3.28504 s  ClockTime = 3 s

Courant Number mean: 0 max: 0
Time = 4.7s

DICPCG:  Solving for w, Initial residual = 0.00292608, Final residual = 4.74581e-06, No Iterations 1
Global Volume-Averaged Solid Fraction (Gs) = 0
DICPCG:  Solving for T, Initial residual = 0.0163669, Final residual = 2.05789e-05, No Iterations 1
GAMG:  Solving for p_rgh, Initial residual = 0, Final residual = 0, No Iterations 0
time step continuity errors : sum local = 0, global = 0, cumulative = 0
DILUPBiCGStab:  Solving for omega, Initial residual = 5.21219e-05, Final residual = 9.88215e-08, No Iterations 1
DILUPBiCGStab:  Solving for k, Initial residual = 0.00632702, Final residual = 8.83637e-06, No Iterations 1
ExecutionTime = 3.34369 s  ClockTime = 3 s

Courant Number mean: 0 max: 0
Time = 4.8s

DICPCG:  Solving for w, Initial residual = 0.00279488, Final residual = 4.49417e-06, No Iterations 1
Global Volume-Averaged Solid Fraction (Gs) = 0
DICPCG:  Solving for T, Initial residual = 0.0162655, Final residual = 2.03809e-05, No Iterations 1
GAMG:  Solving for p_rgh, Initial residual = 0, Final residual = 0, No Iterations 0
time step continuity errors : sum local = 0, global = 0, cumulative = 0
DILUPBiCGStab:  Solving for omega, Initial residual = 5.06063e-05, Final residual = 9.60628e-08, No Iterations 1
DILUPBiCGStab:  Solving for k, Initial residual = 0.00644166, Final residual = 8.79365e-06, No Iterations 1
ExecutionTime = 3.4018 s  ClockTime = 3 s

Courant Number mean: 0 max: 0
Time = 4.9s

DICPCG:  Solving for w, Initial residual = 0.0027184, Final residual = 4.38162e-06, No Iterations 1
Global Volume-Averaged Solid Fraction (Gs) = 0
DICPCG:  Solving for T, Initial residual = 0.016153, Final residual = 2.02221e-05, No Iterations 1
GAMG:  Solving for p_rgh, Initial residual = 0, Final residual = 0, No Iterations 0
time step continuity errors : sum local = 0, global = 0, cumulative = 0
DILUPBiCGStab:  Solving for omega, Initial residual = 4.90978e-05, Final residual = 9.34379e-08, No Iterations 1
DILUPBiCGStab:  Solving for k, Initial residual = 0.00655582, Final residual = 8.75185e-06, No Iterations 1
ExecutionTime = 3.46216 s  ClockTime = 3 s

Courant Number mean: 0 max: 0
Time = 5s

DICPCG:  Solving for w, Initial residual = 0.00263004, Final residual = 4.25536e-06, No Iterations 1
Global Volume-Averaged Solid Fraction (Gs) = 0
DICPCG:  Solving for T, Initial residual = 0.0160904, Final residual = 2.01047e-05, No Iterations 1
GAMG:  Solving for p_rgh, Initial residual = 0, Final residual = 0, No Iterations 0
time step continuity errors : sum local = 0, global = 0, cumulative = 0
DILUPBiCGStab:  Solving for omega, Initial residual = 4.7598e-05, Final residual = 9.10815e-08, No Iterations 1
DILUPBiCGStab:  Solving for k, Initial residual = 0.00666941, Final residual = 8.71102e-06, No Iterations 1
ExecutionTime = 3.5922 s  ClockTime = 3 s

Courant Number mean: 0 max: 0
Time = 5.1s

DICPCG:  Solving for w, Initial residual = 0.00252158, Final residual = 4.0636e-06, No Iterations 1
Global Volume-Averaged Solid Fraction (Gs) = 0
DICPCG:  Solving for T, Initial residual = 0.0159873, Final residual = 2.00156e-05, No Iterations 1
GAMG:  Solving for p_rgh, Initial residual = 0, Final residual = 0, No Iterations 0
time step continuity errors : sum local = 0, global = 0, cumulative = 0
DILUPBiCGStab:  Solving for omega, Initial residual = 4.61141e-05, Final residual = 8.89064e-08, No Iterations 1
DILUPBiCGStab:  Solving for k, Initial residual = 0.00678239, Final residual = 8.67167e-06, No Iterations 1
ExecutionTime = 3.65266 s  ClockTime = 3 s

Courant Number mean: 0 max: 0
Time = 5.2s

DICPCG:  Solving for w, Initial residual = 0.00247569, Final residual = 3.99159e-06, No Iterations 1
Global Volume-Averaged Solid Fraction (Gs) = 0
DICPCG:  Solving for T, Initial residual = 0.015916, Final residual = 1.99415e-05, No Iterations 1
GAMG:  Solving for p_rgh, Initial residual = 0, Final residual = 0, No Iterations 0
time step continuity errors : sum local = 0, global = 0, cumulative = 0
DILUPBiCGStab:  Solving for omega, Initial residual = 4.46456e-05, Final residual = 8.70467e-08, No Iterations 1
DILUPBiCGStab:  Solving for k, Initial residual = 0.00689467, Final residual = 8.63414e-06, No Iterations 1
ExecutionTime = 3.71064 s  ClockTime = 3 s

Courant Number mean: 0 max: 0
Time = 5.3s

DICPCG:  Solving for w, Initial residual = 0.00240169, Final residual = 3.85737e-06, No Iterations 1
Global Volume-Averaged Solid Fraction (Gs) = 0
DICPCG:  Solving for T, Initial residual = 0.0159263, Final residual = 1.99541e-05, No Iterations 1
GAMG:  Solving for p_rgh, Initial residual = 0, Final residual = 0, No Iterations 0
time step continuity errors : sum local = 0, global = 0, cumulative = 0
DILUPBiCGStab:  Solving for omega, Initial residual = 4.31893e-05, Final residual = 8.55098e-08, No Iterations 1
DILUPBiCGStab:  Solving for k, Initial residual = 0.00700614, Final residual = 8.59951e-06, No Iterations 1
ExecutionTime = 3.76958 s  ClockTime = 3 s

Courant Number mean: 0 max: 0
Time = 5.4s

DICPCG:  Solving for w, Initial residual = 0.00234538, Final residual = 3.7583e-06, No Iterations 1
Global Volume-Averaged Solid Fraction (Gs) = 0
DICPCG:  Solving for T, Initial residual = 0.0159021, Final residual = 1.98995e-05, No Iterations 1
GAMG:  Solving for p_rgh, Initial residual = 0, Final residual = 0, No Iterations 0
time step continuity errors : sum local = 0, global = 0, cumulative = 0
DILUPBiCGStab:  Solving for omega, Initial residual = 4.17462e-05, Final residual = 8.41352e-08, No Iterations 1
DILUPBiCGStab:  Solving for k, Initial residual = 0.0071167, Final residual = 8.5663e-06, No Iterations 1
ExecutionTime = 3.83586 s  ClockTime = 3 s

Courant Number mean: 0 max: 0
Time = 5.5s

DICPCG:  Solving for w, Initial residual = 0.00224374, Final residual = 3.62309e-06, No Iterations 1
Global Volume-Averaged Solid Fraction (Gs) = 0
DICPCG:  Solving for T, Initial residual = 0.0158096, Final residual = 1.97646e-05, No Iterations 1
GAMG:  Solving for p_rgh, Initial residual = 0, Final residual = 0, No Iterations 0
time step continuity errors : sum local = 0, global = 0, cumulative = 0
DILUPBiCGStab:  Solving for omega, Initial residual = 4.03179e-05, Final residual = 8.28548e-08, No Iterations 1
DILUPBiCGStab:  Solving for k, Initial residual = 0.00722635, Final residual = 8.53297e-06, No Iterations 1
ExecutionTime = 3.90684 s  ClockTime = 4 s

Courant Number mean: 0 max: 0
Time = 5.6s

DICPCG:  Solving for w, Initial residual = 0.00215954, Final residual = 3.43998e-06, No Iterations 1
Global Volume-Averaged Solid Fraction (Gs) = 0
DICPCG:  Solving for T, Initial residual = 0.0158744, Final residual = 1.98213e-05, No Iterations 1
GAMG:  Solving for p_rgh, Initial residual = 0, Final residual = 0, No Iterations 0
time step continuity errors : sum local = 0, global = 0, cumulative = 0
DILUPBiCGStab:  Solving for omega, Initial residual = 3.89042e-05, Final residual = 8.18674e-08, No Iterations 1
DILUPBiCGStab:  Solving for k, Initial residual = 0.00733502, Final residual = 8.49948e-06, No Iterations 1
ExecutionTime = 3.97586 s  ClockTime = 4 s

Courant Number mean: 0 max: 0
Time = 5.7s

DICPCG:  Solving for w, Initial residual = 0.00201436, Final residual = 3.23562e-06, No Iterations 1
Global Volume-Averaged Solid Fraction (Gs) = 0
DICPCG:  Solving for T, Initial residual = 0.0157354, Final residual = 1.969e-05, No Iterations 1
GAMG:  Solving for p_rgh, Initial residual = 0, Final residual = 0, No Iterations 0
time step continuity errors : sum local = 0, global = 0, cumulative = 0
DILUPBiCGStab:  Solving for omega, Initial residual = 3.75061e-05, Final residual = 8.11258e-08, No Iterations 1
DILUPBiCGStab:  Solving for k, Initial residual = 0.00744248, Final residual = 8.4663e-06, No Iterations 1
ExecutionTime = 4.04508 s  ClockTime = 4 s

Courant Number mean: 0 max: 0
Time = 5.8s

DICPCG:  Solving for w, Initial residual = 0.00197209, Final residual = 3.1478e-06, No Iterations 1
Global Volume-Averaged Solid Fraction (Gs) = 0
DICPCG:  Solving for T, Initial residual = 0.015693, Final residual = 1.96664e-05, No Iterations 1
GAMG:  Solving for p_rgh, Initial residual = 0, Final residual = 0, No Iterations 0
time step continuity errors : sum local = 0, global = 0, cumulative = 0
DILUPBiCGStab:  Solving for omega, Initial residual = 3.61246e-05, Final residual = 8.05846e-08, No Iterations 1
DILUPBiCGStab:  Solving for k, Initial residual = 0.00754848, Final residual = 8.43319e-06, No Iterations 1
ExecutionTime = 4.11786 s  ClockTime = 4 s

Courant Number mean: 0 max: 0
Time = 5.9s

DICPCG:  Solving for w, Initial residual = 0.00196158, Final residual = 3.12217e-06, No Iterations 1
Global Volume-Averaged Solid Fraction (Gs) = 0
DICPCG:  Solving for T, Initial residual = 0.0156949, Final residual = 1.9712e-05, No Iterations 1
GAMG:  Solving for p_rgh, Initial residual = 0, Final residual = 0, No Iterations 0
time step continuity errors : sum local = 0, global = 0, cumulative = 0
DILUPBiCGStab:  Solving for omega, Initial residual = 3.47611e-05, Final residual = 8.01976e-08, No Iterations 1
DILUPBiCGStab:  Solving for k, Initial residual = 0.00765313, Final residual = 8.40009e-06, No Iterations 1
ExecutionTime = 4.18658 s  ClockTime = 4 s

Courant Number mean: 0 max: 0
Time = 6s

DICPCG:  Solving for w, Initial residual = 0.00183709, Final residual = 2.90529e-06, No Iterations 1
Global Volume-Averaged Solid Fraction (Gs) = 0
DICPCG:  Solving for T, Initial residual = 0.0156364, Final residual = 1.9552e-05, No Iterations 1
GAMG:  Solving for p_rgh, Initial residual = 0, Final residual = 0, No Iterations 0
time step continuity errors : sum local = 0, global = 0, cumulative = 0
DILUPBiCGStab:  Solving for omega, Initial residual = 3.34164e-05, Final residual = 8.00018e-08, No Iterations 1
DILUPBiCGStab:  Solving for k, Initial residual = 0.00775649, Final residual = 8.36703e-06, No Iterations 1
ExecutionTime = 4.32664 s  ClockTime = 4 s

Courant Number mean: 0 max: 0
Time = 6.1s

DICPCG:  Solving for w, Initial residual = 0.00175615, Final residual = 2.78673e-06, No Iterations 1
Global Volume-Averaged Solid Fraction (Gs) = 0
DICPCG:  Solving for T, Initial residual = 0.0155389, Final residual = 1.94045e-05, No Iterations 1
GAMG:  Solving for p_rgh, Initial residual = 0, Final residual = 0, No Iterations 0
time step continuity errors : sum local = 0, global = 0, cumulative = 0
DILUPBiCGStab:  Solving for omega, Initial residual = 3.20912e-05, Final residual = 7.98425e-08, No Iterations 1
DILUPBiCGStab:  Solving for k, Initial residual = 0.00785847, Final residual = 8.3338e-06, No Iterations 1
ExecutionTime = 4.39609 s  ClockTime = 4 s

Courant Number mean: 0 max: 0
Time = 6.2s

DICPCG:  Solving for w, Initial residual = 0.00174046, Final residual = 2.74784e-06, No Iterations 1
Global Volume-Averaged Solid Fraction (Gs) = 0
DICPCG:  Solving for T, Initial residual = 0.0155612, Final residual = 1.94635e-05, No Iterations 1
GAMG:  Solving for p_rgh, Initial residual = 0, Final residual = 0, No Iterations 0
time step continuity errors : sum local = 0, global = 0, cumulative = 0
DILUPBiCGStab:  Solving for omega, Initial residual = 3.07868e-05, Final residual = 7.97213e-08, No Iterations 1
DILUPBiCGStab:  Solving for k, Initial residual = 0.00795873, Final residual = 8.29992e-06, No Iterations 1
ExecutionTime = 4.46152 s  ClockTime = 4 s

Courant Number mean: 0 max: 0
Time = 6.3s

DICPCG:  Solving for w, Initial residual = 0.0016045, Final residual = 2.55418e-06, No Iterations 1
Global Volume-Averaged Solid Fraction (Gs) = 0
DICPCG:  Solving for T, Initial residual = 0.0155437, Final residual = 1.943e-05, No Iterations 1
GAMG:  Solving for p_rgh, Initial residual = 0, Final residual = 0, No Iterations 0
time step continuity errors : sum local = 0, global = 0, cumulative = 0
DILUPBiCGStab:  Solving for omega, Initial residual = 2.95044e-05, Final residual = 7.9635e-08, No Iterations 1
DILUPBiCGStab:  Solving for k, Initial residual = 0.00805734, Final residual = 8.26534e-06, No Iterations 1
ExecutionTime = 4.52784 s  ClockTime = 4 s

Courant Number mean: 0 max: 0
Time = 6.4s

DICPCG:  Solving for w, Initial residual = 0.00155052, Final residual = 2.44749e-06, No Iterations 1
Global Volume-Averaged Solid Fraction (Gs) = 0
DICPCG:  Solving for T, Initial residual = 0.0155018, Final residual = 1.93801e-05, No Iterations 1
GAMG:  Solving for p_rgh, Initial residual = 0, Final residual = 0, No Iterations 0
time step continuity errors : sum local = 0, global = 0, cumulative = 0
DILUPBiCGStab:  Solving for omega, Initial residual = 2.82553e-05, Final residual = 7.95846e-08, No Iterations 1
DILUPBiCGStab:  Solving for k, Initial residual = 0.00815441, Final residual = 8.23064e-06, No Iterations 1
ExecutionTime = 4.58959 s  ClockTime = 4 s

Courant Number mean: 0 max: 0
Time = 6.5s

DICPCG:  Solving for w, Initial residual = 0.00152367, Final residual = 2.43256e-06, No Iterations 1
Global Volume-Averaged Solid Fraction (Gs) = 0
DICPCG:  Solving for T, Initial residual = 0.0155264, Final residual = 1.94439e-05, No Iterations 1
GAMG:  Solving for p_rgh, Initial residual = 0, Final residual = 0, No Iterations 0
time step continuity errors : sum local = 0, global = 0, cumulative = 0
DILUPBiCGStab:  Solving for omega, Initial residual = 2.70285e-05, Final residual = 7.9558e-08, No Iterations 1
DILUPBiCGStab:  Solving for k, Initial residual = 0.00824989, Final residual = 8.1953e-06, No Iterations 1
ExecutionTime = 4.65266 s  ClockTime = 4 s

Courant Number mean: 0 max: 0
Time = 6.6s

DICPCG:  Solving for w, Initial residual = 0.00155539, Final residual = 2.46776e-06, No Iterations 1
Global Volume-Averaged Solid Fraction (Gs) = 0
DICPCG:  Solving for T, Initial residual = 0.0154742, Final residual = 1.93699e-05, No Iterations 1
GAMG:  Solving for p_rgh, Initial residual = 0, Final residual = 0, No Iterations 0
time step continuity errors : sum local = 0, global = 0, cumulative = 0
DILUPBiCGStab:  Solving for omega, Initial residual = 2.58251e-05, Final residual = 7.95846e-08, No Iterations 1
DILUPBiCGStab:  Solving for k, Initial residual = 0.00834372, Final residual = 8.16023e-06, No Iterations 1
ExecutionTime = 4.71889 s  ClockTime = 4 s

Courant Number mean: 0 max: 0
Time = 6.7s

DICPCG:  Solving for w, Initial residual = 0.00149698, Final residual = 2.38483e-06, No Iterations 1
Global Volume-Averaged Solid Fraction (Gs) = 0
DICPCG:  Solving for T, Initial residual = 0.0154334, Final residual = 1.93115e-05, No Iterations 1
GAMG:  Solving for p_rgh, Initial residual = 0, Final residual = 0, No Iterations 0
time step continuity errors : sum local = 0, global = 0, cumulative = 0
DILUPBiCGStab:  Solving for omega, Initial residual = 2.46455e-05, Final residual = 7.967e-08, No Iterations 1
DILUPBiCGStab:  Solving for k, Initial residual = 0.00843585, Final residual = 8.1255e-06, No Iterations 1
ExecutionTime = 4.78576 s  ClockTime = 4 s

Courant Number mean: 0 max: 0
Time = 6.8s

DICPCG:  Solving for w, Initial residual = 0.00146492, Final residual = 2.31885e-06, No Iterations 1
Global Volume-Averaged Solid Fraction (Gs) = 0
DICPCG:  Solving for T, Initial residual = 0.015502, Final residual = 1.93392e-05, No Iterations 1
GAMG:  Solving for p_rgh, Initial residual = 0, Final residual = 0, No Iterations 0
time step continuity errors : sum local = 0, global = 0, cumulative = 0
DILUPBiCGStab:  Solving for omega, Initial residual = 2.34904e-05, Final residual = 7.97324e-08, No Iterations 1
DILUPBiCGStab:  Solving for k, Initial residual = 0.00852622, Final residual = 8.09065e-06, No Iterations 1
ExecutionTime = 4.85095 s  ClockTime = 4 s

Courant Number mean: 0 max: 0
Time = 6.9s

DICPCG:  Solving for w, Initial residual = 0.00140388, Final residual = 2.23327e-06, No Iterations 1
Global Volume-Averaged Solid Fraction (Gs) = 0
DICPCG:  Solving for T, Initial residual = 0.0154339, Final residual = 1.92696e-05, No Iterations 1
GAMG:  Solving for p_rgh, Initial residual = 0, Final residual = 0, No Iterations 0
time step continuity errors : sum local = 0, global = 0, cumulative = 0
DILUPBiCGStab:  Solving for omega, Initial residual = 2.2361e-05, Final residual = 7.97922e-08, No Iterations 1
DILUPBiCGStab:  Solving for k, Initial residual = 0.00861479, Final residual = 8.05589e-06, No Iterations 1
ExecutionTime = 4.91595 s  ClockTime = 5 s

Courant Number mean: 0 max: 0
Time = 7s

DICPCG:  Solving for w, Initial residual = 0.00137915, Final residual = 2.17513e-06, No Iterations 1
Global Volume-Averaged Solid Fraction (Gs) = 0
DICPCG:  Solving for T, Initial residual = 0.0153676, Final residual = 1.92077e-05, No Iterations 1
GAMG:  Solving for p_rgh, Initial residual = 0, Final residual = 0, No Iterations 0
time step continuity errors : sum local = 0, global = 0, cumulative = 0
DILUPBiCGStab:  Solving for omega, Initial residual = 2.1257e-05, Final residual = 7.993e-08, No Iterations 1
DILUPBiCGStab:  Solving for k, Initial residual = 0.00870149, Final residual = 8.02183e-06, No Iterations 1
ExecutionTime = 5.04555 s  ClockTime = 5 s

Courant Number mean: 0 max: 0
Time = 7.1s

DICPCG:  Solving for w, Initial residual = 0.00135017, Final residual = 2.13708e-06, No Iterations 1
Global Volume-Averaged Solid Fraction (Gs) = 0
DICPCG:  Solving for T, Initial residual = 0.0154604, Final residual = 1.93527e-05, No Iterations 1
GAMG:  Solving for p_rgh, Initial residual = 0, Final residual = 0, No Iterations 0
time step continuity errors : sum local = 0, global = 0, cumulative = 0
DILUPBiCGStab:  Solving for omega, Initial residual = 2.01791e-05, Final residual = 8.00301e-08, No Iterations 1
DILUPBiCGStab:  Solving for k, Initial residual = 0.00878629, Final residual = 7.9883e-06, No Iterations 1
ExecutionTime = 5.11811 s  ClockTime = 5 s

Courant Number mean: 0 max: 0
Time = 7.2s

DICPCG:  Solving for w, Initial residual = 0.00133346, Final residual = 2.10144e-06, No Iterations 1
Global Volume-Averaged Solid Fraction (Gs) = 0
DICPCG:  Solving for T, Initial residual = 0.0153999, Final residual = 1.92707e-05, No Iterations 1
GAMG:  Solving for p_rgh, Initial residual = 0, Final residual = 0, No Iterations 0
time step continuity errors : sum local = 0, global = 0, cumulative = 0
DILUPBiCGStab:  Solving for omega, Initial residual = 1.91277e-05, Final residual = 8.00789e-08, No Iterations 1
DILUPBiCGStab:  Solving for k, Initial residual = 0.00886915, Final residual = 7.95571e-06, No Iterations 1
ExecutionTime = 5.18508 s  ClockTime = 5 s

Courant Number mean: 0 max: 0
Time = 7.3s

DICPCG:  Solving for w, Initial residual = 0.00128959, Final residual = 2.04902e-06, No Iterations 1
Global Volume-Averaged Solid Fraction (Gs) = 0
DICPCG:  Solving for T, Initial residual = 0.015328, Final residual = 1.91376e-05, No Iterations 1
GAMG:  Solving for p_rgh, Initial residual = 0, Final residual = 0, No Iterations 0
time step continuity errors : sum local = 0, global = 0, cumulative = 0
DILUPBiCGStab:  Solving for omega, Initial residual = 1.81039e-05, Final residual = 8.0069e-08, No Iterations 1
DILUPBiCGStab:  Solving for k, Initial residual = 0.00895002, Final residual = 7.9239e-06, No Iterations 1
ExecutionTime = 5.2472 s  ClockTime = 5 s

Courant Number mean: 0 max: 0
Time = 7.4s

DICPCG:  Solving for w, Initial residual = 0.00128329, Final residual = 2.01596e-06, No Iterations 1
Global Volume-Averaged Solid Fraction (Gs) = 0
DICPCG:  Solving for T, Initial residual = 0.0154127, Final residual = 1.92804e-05, No Iterations 1
GAMG:  Solving for p_rgh, Initial residual = 0, Final residual = 0, No Iterations 0
time step continuity errors : sum local = 0, global = 0, cumulative = 0
DILUPBiCGStab:  Solving for omega, Initial residual = 1.71179e-05, Final residual = 7.99923e-08, No Iterations 1
DILUPBiCGStab:  Solving for k, Initial residual = 0.00902888, Final residual = 7.89313e-06, No Iterations 1
ExecutionTime = 5.30837 s  ClockTime = 5 s

Courant Number mean: 0 max: 0
Time = 7.5s

DICPCG:  Solving for w, Initial residual = 0.00125316, Final residual = 1.97313e-06, No Iterations 1
Global Volume-Averaged Solid Fraction (Gs) = 0
DICPCG:  Solving for T, Initial residual = 0.015362, Final residual = 1.91983e-05, No Iterations 1
GAMG:  Solving for p_rgh, Initial residual = 0, Final residual = 0, No Iterations 0
time step continuity errors : sum local = 0, global = 0, cumulative = 0
DILUPBiCGStab:  Solving for omega, Initial residual = 1.61615e-05, Final residual = 7.99253e-08, No Iterations 1
DILUPBiCGStab:  Solving for k, Initial residual = 0.0091057, Final residual = 7.86396e-06, No Iterations 1
ExecutionTime = 5.36808 s  ClockTime = 5 s

Courant Number mean: 0 max: 0
Time = 7.6s

DICPCG:  Solving for w, Initial residual = 0.00122871, Final residual = 1.93798e-06, No Iterations 1
Global Volume-Averaged Solid Fraction (Gs) = 0
DICPCG:  Solving for T, Initial residual = 0.0153616, Final residual = 1.92156e-05, No Iterations 1
GAMG:  Solving for p_rgh, Initial residual = 0, Final residual = 0, No Iterations 0
time step continuity errors : sum local = 0, global = 0, cumulative = 0
DILUPBiCGStab:  Solving for omega, Initial residual = 1.52321e-05, Final residual = 7.97337e-08, No Iterations 1
DILUPBiCGStab:  Solving for k, Initial residual = 0.00918043, Final residual = 7.83563e-06, No Iterations 1
ExecutionTime = 5.42894 s  ClockTime = 5 s

Courant Number mean: 0 max: 0
Time = 7.7s

DICPCG:  Solving for w, Initial residual = 0.00117231, Final residual = 1.85307e-06, No Iterations 1
Global Volume-Averaged Solid Fraction (Gs) = 0
DICPCG:  Solving for T, Initial residual = 0.0153513, Final residual = 1.92537e-05, No Iterations 1
GAMG:  Solving for p_rgh, Initial residual = 0, Final residual = 0, No Iterations 0
time step continuity errors : sum local = 0, global = 0, cumulative = 0
DILUPBiCGStab:  Solving for omega, Initial residual = 1.43302e-05, Final residual = 7.94068e-08, No Iterations 1
DILUPBiCGStab:  Solving for k, Initial residual = 0.00925306, Final residual = 7.80803e-06, No Iterations 1
ExecutionTime = 5.48698 s  ClockTime = 5 s

Courant Number mean: 0 max: 0
Time = 7.8s

DICPCG:  Solving for w, Initial residual = 0.00118261, Final residual = 1.86169e-06, No Iterations 1
Global Volume-Averaged Solid Fraction (Gs) = 0
DICPCG:  Solving for T, Initial residual = 0.0152995, Final residual = 1.91559e-05, No Iterations 1
GAMG:  Solving for p_rgh, Initial residual = 0, Final residual = 0, No Iterations 0
time step continuity errors : sum local = 0, global = 0, cumulative = 0
DILUPBiCGStab:  Solving for omega, Initial residual = 1.34553e-05, Final residual = 7.89341e-08, No Iterations 1
DILUPBiCGStab:  Solving for k, Initial residual = 0.00932344, Final residual = 7.78167e-06, No Iterations 1
ExecutionTime = 5.5504 s  ClockTime = 5 s

Courant Number mean: 0 max: 0
Time = 7.9s

DICPCG:  Solving for w, Initial residual = 0.00112491, Final residual = 1.7808e-06, No Iterations 1
Global Volume-Averaged Solid Fraction (Gs) = 0
DICPCG:  Solving for T, Initial residual = 0.0153145, Final residual = 1.91652e-05, No Iterations 1
GAMG:  Solving for p_rgh, Initial residual = 0, Final residual = 0, No Iterations 0
time step continuity errors : sum local = 0, global = 0, cumulative = 0
DILUPBiCGStab:  Solving for omega, Initial residual = 1.26115e-05, Final residual = 7.83003e-08, No Iterations 1
DILUPBiCGStab:  Solving for k, Initial residual = 0.00939165, Final residual = 7.7571e-06, No Iterations 1
ExecutionTime = 5.61233 s  ClockTime = 5 s

Courant Number mean: 0 max: 0
Time = 8s

DICPCG:  Solving for w, Initial residual = 0.00105866, Final residual = 1.66658e-06, No Iterations 1
Global Volume-Averaged Solid Fraction (Gs) = 0
DICPCG:  Solving for T, Initial residual = 0.0153701, Final residual = 1.91747e-05, No Iterations 1
GAMG:  Solving for p_rgh, Initial residual = 0, Final residual = 0, No Iterations 0
time step continuity errors : sum local = 0, global = 0, cumulative = 0
DILUPBiCGStab:  Solving for omega, Initial residual = 1.1796e-05, Final residual = 7.74858e-08, No Iterations 1
DILUPBiCGStab:  Solving for k, Initial residual = 0.00945767, Final residual = 7.73414e-06, No Iterations 1
ExecutionTime = 5.73626 s  ClockTime = 5 s

Courant Number mean: 0 max: 0
Time = 8.1s

DICPCG:  Solving for w, Initial residual = 0.00101696, Final residual = 1.60088e-06, No Iterations 1
Global Volume-Averaged Solid Fraction (Gs) = 0
DICPCG:  Solving for T, Initial residual = 0.0153231, Final residual = 1.91236e-05, No Iterations 1
GAMG:  Solving for p_rgh, Initial residual = 0, Final residual = 0, No Iterations 0
time step continuity errors : sum local = 0, global = 0, cumulative = 0
DILUPBiCGStab:  Solving for omega, Initial residual = 1.1031e-05, Final residual = 7.6467e-08, No Iterations 1
DILUPBiCGStab:  Solving for k, Initial residual = 0.00952151, Final residual = 7.71203e-06, No Iterations 1
ExecutionTime = 5.79594 s  ClockTime = 5 s

Courant Number mean: 0 max: 0
Time = 8.2s

DICPCG:  Solving for w, Initial residual = 0.00101449, Final residual = 1.59159e-06, No Iterations 1
Global Volume-Averaged Solid Fraction (Gs) = 0
DICPCG:  Solving for T, Initial residual = 0.0152895, Final residual = 1.91414e-05, No Iterations 1
GAMG:  Solving for p_rgh, Initial residual = 0, Final residual = 0, No Iterations 0
time step continuity errors : sum local = 0, global = 0, cumulative = 0
DILUPBiCGStab:  Solving for omega, Initial residual = 1.02975e-05, Final residual = 7.52183e-08, No Iterations 1
DILUPBiCGStab:  Solving for k, Initial residual = 0.00958316, Final residual = 7.69104e-06, No Iterations 1
ExecutionTime = 5.85554 s  ClockTime = 6 s

Courant Number mean: 0 max: 0
Time = 8.3s

DICPCG:  Solving for w, Initial residual = 0.00102027, Final residual = 1.60727e-06, No Iterations 1
Global Volume-Averaged Solid Fraction (Gs) = 0
DICPCG:  Solving for T, Initial residual = 0.0153315, Final residual = 1.91984e-05, No Iterations 1
GAMG:  Solving for p_rgh, Initial residual = 0, Final residual = 0, No Iterations 0
time step continuity errors : sum local = 0, global = 0, cumulative = 0
DILUPBiCGStab:  Solving for omega, Initial residual = 9.5934e-06, Final residual = 7.36971e-08, No Iterations 1
DILUPBiCGStab:  Solving for k, Initial residual = 0.00964259, Final residual = 7.67119e-06, No Iterations 1
ExecutionTime = 5.91328 s  ClockTime = 6 s

Courant Number mean: 0 max: 0
Time = 8.4s

DICPCG:  Solving for w, Initial residual = 0.000964586, Final residual = 1.49435e-06, No Iterations 1
Global Volume-Averaged Solid Fraction (Gs) = 0
DICPCG:  Solving for T, Initial residual = 0.0153277, Final residual = 1.91776e-05, No Iterations 1
GAMG:  Solving for p_rgh, Initial residual = 0, Final residual = 0, No Iterations 0
time step continuity errors : sum local = 0, global = 0, cumulative = 0
DILUPBiCGStab:  Solving for omega, Initial residual = 8.92106e-06, Final residual = 7.18618e-08, No Iterations 1
DILUPBiCGStab:  Solving for k, Initial residual = 0.0096998, Final residual = 7.65297e-06, No Iterations 1
ExecutionTime = 5.97519 s  ClockTime = 6 s

Courant Number mean: 0 max: 0
Time = 8.5s

DICPCG:  Solving for w, Initial residual = 0.000924512, Final residual = 1.44178e-06, No Iterations 1
Global Volume-Averaged Solid Fraction (Gs) = 0
DICPCG:  Solving for T, Initial residual = 0.0152621, Final residual = 1.90455e-05, No Iterations 1
GAMG:  Solving for p_rgh, Initial residual = 0, Final residual = 0, No Iterations 0
time step continuity errors : sum local = 0, global = 0, cumulative = 0
DILUPBiCGStab:  Solving for omega, Initial residual = 8.30595e-06, Final residual = 6.97003e-08, No Iterations 1
DILUPBiCGStab:  Solving for k, Initial residual = 0.00975472, Final residual = 7.63597e-06, No Iterations 1
ExecutionTime = 6.03382 s  ClockTime = 6 s

Courant Number mean: 0 max: 0
Time = 8.6s

DICPCG:  Solving for w, Initial residual = 0.00092562, Final residual = 1.43544e-06, No Iterations 1
Global Volume-Averaged Solid Fraction (Gs) = 0
DICPCG:  Solving for T, Initial residual = 0.015342, Final residual = 1.91662e-05, No Iterations 1
GAMG:  Solving for p_rgh, Initial residual = 0, Final residual = 0, No Iterations 0
time step continuity errors : sum local = 0, global = 0, cumulative = 0
DILUPBiCGStab:  Solving for omega, Initial residual = 7.71983e-06, Final residual = 6.71406e-08, No Iterations 1
DILUPBiCGStab:  Solving for k, Initial residual = 0.00980745, Final residual = 7.62022e-06, No Iterations 1
ExecutionTime = 6.09298 s  ClockTime = 6 s

Courant Number mean: 0 max: 0
Time = 8.7s

DICPCG:  Solving for w, Initial residual = 0.000902195, Final residual = 1.4114e-06, No Iterations 1
Global Volume-Averaged Solid Fraction (Gs) = 0
DICPCG:  Solving for T, Initial residual = 0.0152878, Final residual = 1.91171e-05, No Iterations 1
GAMG:  Solving for p_rgh, Initial residual = 0, Final residual = 0, No Iterations 0
time step continuity errors : sum local = 0, global = 0, cumulative = 0
DILUPBiCGStab:  Solving for omega, Initial residual = 7.16661e-06, Final residual = 6.41974e-08, No Iterations 1
DILUPBiCGStab:  Solving for k, Initial residual = 0.00985797, Final residual = 7.60577e-06, No Iterations 1
ExecutionTime = 6.15102 s  ClockTime = 6 s

Courant Number mean: 0 max: 0
Time = 8.8s

DICPCG:  Solving for w, Initial residual = 0.0009716, Final residual = 1.51872e-06, No Iterations 1
Global Volume-Averaged Solid Fraction (Gs) = 0
DICPCG:  Solving for T, Initial residual = 0.015275, Final residual = 1.91107e-05, No Iterations 1
GAMG:  Solving for p_rgh, Initial residual = 0, Final residual = 0, No Iterations 0
time step continuity errors : sum local = 0, global = 0, cumulative = 0
DILUPBiCGStab:  Solving for omega, Initial residual = 6.64168e-06, Final residual = 6.09422e-08, No Iterations 1
DILUPBiCGStab:  Solving for k, Initial residual = 0.00990631, Final residual = 7.59266e-06, No Iterations 1
ExecutionTime = 6.2083 s  ClockTime = 6 s

Courant Number mean: 0 max: 0
Time = 8.9s

DICPCG:  Solving for w, Initial residual = 0.000906054, Final residual = 1.41748e-06, No Iterations 1
Global Volume-Averaged Solid Fraction (Gs) = 0
DICPCG:  Solving for T, Initial residual = 0.0153572, Final residual = 1.92514e-05, No Iterations 1
GAMG:  Solving for p_rgh, Initial residual = 0, Final residual = 0, No Iterations 0
time step continuity errors : sum local = 0, global = 0, cumulative = 0
DILUPBiCGStab:  Solving for omega, Initial residual = 6.17497e-06, Final residual = 5.73724e-08, No Iterations 1
DILUPBiCGStab:  Solving for k, Initial residual = 0.0099525, Final residual = 7.58127e-06, No Iterations 1
ExecutionTime = 6.26697 s  ClockTime = 6 s

Courant Number mean: 0 max: 0
Time = 9s

DICPCG:  Solving for w, Initial residual = 0.000897382, Final residual = 1.39626e-06, No Iterations 1
Global Volume-Averaged Solid Fraction (Gs) = 0
DICPCG:  Solving for T, Initial residual = 0.0152845, Final residual = 1.91313e-05, No Iterations 1
GAMG:  Solving for p_rgh, Initial residual = 0, Final residual = 0, No Iterations 0
time step continuity errors : sum local = 0, global = 0, cumulative = 0
DILUPBiCGStab:  Solving for omega, Initial residual = 5.74326e-06, Final residual = 5.35038e-08, No Iterations 1
DILUPBiCGStab:  Solving for k, Initial residual = 0.00999653, Final residual = 7.5715e-06, No Iterations 1
ExecutionTime = 6.39157 s  ClockTime = 6 s

Courant Number mean: 0 max: 0
Time = 9.1s

DICPCG:  Solving for w, Initial residual = 0.00085509, Final residual = 1.33153e-06, No Iterations 1
Global Volume-Averaged Solid Fraction (Gs) = 0
DICPCG:  Solving for T, Initial residual = 0.0152683, Final residual = 1.90992e-05, No Iterations 1
GAMG:  Solving for p_rgh, Initial residual = 0, Final residual = 0, No Iterations 0
time step continuity errors : sum local = 0, global = 0, cumulative = 0
DILUPBiCGStab:  Solving for omega, Initial residual = 5.33574e-06, Final residual = 4.93432e-08, No Iterations 1
DILUPBiCGStab:  Solving for k, Initial residual = 0.0100384, Final residual = 7.5631e-06, No Iterations 1
ExecutionTime = 6.4507 s  ClockTime = 6 s

Courant Number mean: 0 max: 0
Time = 9.2s

DICPCG:  Solving for w, Initial residual = 0.000843351, Final residual = 1.31137e-06, No Iterations 1
Global Volume-Averaged Solid Fraction (Gs) = 0
DICPCG:  Solving for T, Initial residual = 0.0153651, Final residual = 1.91945e-05, No Iterations 1
GAMG:  Solving for p_rgh, Initial residual = 0, Final residual = 0, No Iterations 0
time step continuity errors : sum local = 0, global = 0, cumulative = 0
DILUPBiCGStab:  Solving for omega, Initial residual = 4.98283e-06, Final residual = 4.521e-08, No Iterations 1
DILUPBiCGStab:  Solving for k, Initial residual = 0.0100783, Final residual = 7.55605e-06, No Iterations 1
ExecutionTime = 6.51108 s  ClockTime = 6 s

Courant Number mean: 0 max: 0
Time = 9.3s

DICPCG:  Solving for w, Initial residual = 0.00085009, Final residual = 1.33165e-06, No Iterations 1
Global Volume-Averaged Solid Fraction (Gs) = 0
DICPCG:  Solving for T, Initial residual = 0.0153093, Final residual = 1.90948e-05, No Iterations 1
GAMG:  Solving for p_rgh, Initial residual = 0, Final residual = 0, No Iterations 0
time step continuity errors : sum local = 0, global = 0, cumulative = 0
DILUPBiCGStab:  Solving for omega, Initial residual = 4.68455e-06, Final residual = 4.16545e-08, No Iterations 1
DILUPBiCGStab:  Solving for k, Initial residual = 0.010116, Final residual = 7.55044e-06, No Iterations 1
ExecutionTime = 6.57229 s  ClockTime = 6 s

Courant Number mean: 0 max: 0
Time = 9.4s

DICPCG:  Solving for w, Initial residual = 0.000858451, Final residual = 1.3417e-06, No Iterations 1
Global Volume-Averaged Solid Fraction (Gs) = 0
DICPCG:  Solving for T, Initial residual = 0.0152635, Final residual = 1.91159e-05, No Iterations 1
GAMG:  Solving for p_rgh, Initial residual = 0, Final residual = 0, No Iterations 0
time step continuity errors : sum local = 0, global = 0, cumulative = 0
DILUPBiCGStab:  Solving for omega, Initial residual = 4.40318e-06, Final residual = 3.86347e-08, No Iterations 1
DILUPBiCGStab:  Solving for k, Initial residual = 0.0101516, Final residual = 7.54621e-06, No Iterations 1
ExecutionTime = 6.63277 s  ClockTime = 6 s

Courant Number mean: 0 max: 0
Time = 9.5s

DICPCG:  Solving for w, Initial residual = 0.000809901, Final residual = 1.28477e-06, No Iterations 1
Global Volume-Averaged Solid Fraction (Gs) = 0
DICPCG:  Solving for T, Initial residual = 0.0153442, Final residual = 1.92047e-05, No Iterations 1
GAMG:  Solving for p_rgh, Initial residual = 0, Final residual = 0, No Iterations 0
time step continuity errors : sum local = 0, global = 0, cumulative = 0
DILUPBiCGStab:  Solving for omega, Initial residual = 4.17417e-06, Final residual = 3.58056e-08, No Iterations 1
DILUPBiCGStab:  Solving for k, Initial residual = 0.0101853, Final residual = 7.54354e-06, No Iterations 1
ExecutionTime = 6.69239 s  ClockTime = 6 s

Courant Number mean: 0 max: 0
Time = 9.6s

DICPCG:  Solving for w, Initial residual = 0.000811268, Final residual = 1.27597e-06, No Iterations 1
Global Volume-Averaged Solid Fraction (Gs) = 0
DICPCG:  Solving for T, Initial residual = 0.0153391, Final residual = 1.91943e-05, No Iterations 1
GAMG:  Solving for p_rgh, Initial residual = 0, Final residual = 0, No Iterations 0
time step continuity errors : sum local = 0, global = 0, cumulative = 0
DILUPBiCGStab:  Solving for omega, Initial residual = 3.96964e-06, Final residual = 3.34315e-08, No Iterations 1
DILUPBiCGStab:  Solving for k, Initial residual = 0.0102169, Final residual = 7.54344e-06, No Iterations 1
ExecutionTime = 6.75104 s  ClockTime = 6 s

Courant Number mean: 0 max: 0
Time = 9.7s

DICPCG:  Solving for w, Initial residual = 0.000811042, Final residual = 1.27815e-06, No Iterations 1
Global Volume-Averaged Solid Fraction (Gs) = 0
DICPCG:  Solving for T, Initial residual = 0.0152379, Final residual = 1.90384e-05, No Iterations 1
GAMG:  Solving for p_rgh, Initial residual = 0, Final residual = 0, No Iterations 0
time step continuity errors : sum local = 0, global = 0, cumulative = 0
DILUPBiCGStab:  Solving for omega, Initial residual = 3.79486e-06, Final residual = 3.12578e-08, No Iterations 1
DILUPBiCGStab:  Solving for k, Initial residual = 0.0102466, Final residual = 7.54498e-06, No Iterations 1
ExecutionTime = 6.80918 s  ClockTime = 6 s

Courant Number mean: 0 max: 0
Time = 9.8s

DICPCG:  Solving for w, Initial residual = 0.000804334, Final residual = 1.25959e-06, No Iterations 1
Global Volume-Averaged Solid Fraction (Gs) = 0
DICPCG:  Solving for T, Initial residual = 0.0153307, Final residual = 1.91676e-05, No Iterations 1
GAMG:  Solving for p_rgh, Initial residual = 0, Final residual = 0, No Iterations 0
time step continuity errors : sum local = 0, global = 0, cumulative = 0
DILUPBiCGStab:  Solving for omega, Initial residual = 3.66784e-06, Final residual = 2.97692e-08, No Iterations 1
DILUPBiCGStab:  Solving for k, Initial residual = 0.0102744, Final residual = 7.54814e-06, No Iterations 1
ExecutionTime = 6.86893 s  ClockTime = 7 s

Courant Number mean: 0 max: 0
Time = 9.9s

DICPCG:  Solving for w, Initial residual = 0.000793889, Final residual = 1.2482e-06, No Iterations 1
Global Volume-Averaged Solid Fraction (Gs) = 0
DICPCG:  Solving for T, Initial residual = 0.015323, Final residual = 1.91815e-05, No Iterations 1
GAMG:  Solving for p_rgh, Initial residual = 0, Final residual = 0, No Iterations 0
time step continuity errors : sum local = 0, global = 0, cumulative = 0
DILUPBiCGStab:  Solving for omega, Initial residual = 3.56741e-06, Final residual = 2.88685e-08, No Iterations 1
DILUPBiCGStab:  Solving for k, Initial residual = 0.0103002, Final residual = 7.55275e-06, No Iterations 1
ExecutionTime = 6.927 s  ClockTime = 7 s

Courant Number mean: 0 max: 0
Time = 10s

DICPCG:  Solving for w, Initial residual = 0.000805023, Final residual = 1.25704e-06, No Iterations 1
Global Volume-Averaged Solid Fraction (Gs) = 0
DICPCG:  Solving for T, Initial residual = 0.0153074, Final residual = 1.91464e-05, No Iterations 1
GAMG:  Solving for p_rgh, Initial residual = 0, Final residual = 0, No Iterations 0
time step continuity errors : sum local = 0, global = 0, cumulative = 0
DILUPBiCGStab:  Solving for omega, Initial residual = 3.52469e-06, Final residual = 2.88464e-08, No Iterations 1
DILUPBiCGStab:  Solving for k, Initial residual = 0.0103242, Final residual = 7.55848e-06, No Iterations 1
ExecutionTime = 7.05027 s  ClockTime = 7 s

Courant Number mean: 0 max: 0
Time = 10.1s

DICPCG:  Solving for w, Initial residual = 0.000768728, Final residual = 1.20846e-06, No Iterations 1
Global Volume-Averaged Solid Fraction (Gs) = 0
DICPCG:  Solving for T, Initial residual = 0.0153528, Final residual = 1.92387e-05, No Iterations 1
GAMG:  Solving for p_rgh, Initial residual = 0, Final residual = 0, No Iterations 0
time step continuity errors : sum local = 0, global = 0, cumulative = 0
DILUPBiCGStab:  Solving for omega, Initial residual = 3.53788e-06, Final residual = 2.9635e-08, No Iterations 1
DILUPBiCGStab:  Solving for k, Initial residual = 0.0103463, Final residual = 7.56539e-06, No Iterations 1
ExecutionTime = 7.10892 s  ClockTime = 7 s

Courant Number mean: 0 max: 0
Time = 10.2s

DICPCG:  Solving for w, Initial residual = 0.000755122, Final residual = 1.17298e-06, No Iterations 1
Global Volume-Averaged Solid Fraction (Gs) = 0
DICPCG:  Solving for T, Initial residual = 0.0152977, Final residual = 1.91556e-05, No Iterations 1
GAMG:  Solving for p_rgh, Initial residual = 0, Final residual = 0, No Iterations 0
time step continuity errors : sum local = 0, global = 0, cumulative = 0
DILUPBiCGStab:  Solving for omega, Initial residual = 3.59713e-06, Final residual = 3.12664e-08, No Iterations 1
DILUPBiCGStab:  Solving for k, Initial residual = 0.0103666, Final residual = 7.57328e-06, No Iterations 1
ExecutionTime = 7.17006 s  ClockTime = 7 s

Courant Number mean: 0 max: 0
Time = 10.3s

DICPCG:  Solving for w, Initial residual = 0.000718461, Final residual = 1.12541e-06, No Iterations 1
Global Volume-Averaged Solid Fraction (Gs) = 0
DICPCG:  Solving for T, Initial residual = 0.0152857, Final residual = 1.90917e-05, No Iterations 1
GAMG:  Solving for p_rgh, Initial residual = 0, Final residual = 0, No Iterations 0
time step continuity errors : sum local = 0, global = 0, cumulative = 0
DILUPBiCGStab:  Solving for omega, Initial residual = 3.7213e-06, Final residual = 3.41335e-08, No Iterations 1
DILUPBiCGStab:  Solving for k, Initial residual = 0.0103852, Final residual = 7.58206e-06, No Iterations 1
ExecutionTime = 7.23224 s  ClockTime = 7 s

Courant Number mean: 0 max: 0
Time = 10.4s

DICPCG:  Solving for w, Initial residual = 0.000713651, Final residual = 1.10864e-06, No Iterations 1
Global Volume-Averaged Solid Fraction (Gs) = 0
DICPCG:  Solving for T, Initial residual = 0.0153616, Final residual = 1.91797e-05, No Iterations 1
GAMG:  Solving for p_rgh, Initial residual = 0, Final residual = 0, No Iterations 0
time step continuity errors : sum local = 0, global = 0, cumulative = 0
DILUPBiCGStab:  Solving for omega, Initial residual = 3.93053e-06, Final residual = 3.68127e-08, No Iterations 1
DILUPBiCGStab:  Solving for k, Initial residual = 0.0104019, Final residual = 7.59174e-06, No Iterations 1
ExecutionTime = 7.2908 s  ClockTime = 7 s

Courant Number mean: 0 max: 0
Time = 10.5s

DICPCG:  Solving for w, Initial residual = 0.000677677, Final residual = 1.06547e-06, No Iterations 1
Global Volume-Averaged Solid Fraction (Gs) = 0
DICPCG:  Solving for T, Initial residual = 0.0152729, Final residual = 1.90439e-05, No Iterations 1
GAMG:  Solving for p_rgh, Initial residual = 0, Final residual = 0, No Iterations 0
time step continuity errors : sum local = 0, global = 0, cumulative = 0
DILUPBiCGStab:  Solving for omega, Initial residual = 4.13249e-06, Final residual = 3.88925e-08, No Iterations 1
DILUPBiCGStab:  Solving for k, Initial residual = 0.010417, Final residual = 7.60234e-06, No Iterations 1
ExecutionTime = 7.35068 s  ClockTime = 7 s

Courant Number mean: 0 max: 0
Time = 10.6s

DICPCG:  Solving for w, Initial residual = 0.000688965, Final residual = 1.08194e-06, No Iterations 1
Global Volume-Averaged Solid Fraction (Gs) = 0
DICPCG:  Solving for T, Initial residual = 0.0152554, Final residual = 1.91031e-05, No Iterations 1
GAMG:  Solving for p_rgh, Initial residual = 0, Final residual = 0, No Iterations 0
time step continuity errors : sum local = 0, global = 0, cumulative = 0
DILUPBiCGStab:  Solving for omega, Initial residual = 4.31254e-06, Final residual = 4.03813e-08, No Iterations 1
DILUPBiCGStab:  Solving for k, Initial residual = 0.0104303, Final residual = 7.61407e-06, No Iterations 1
ExecutionTime = 7.41125 s  ClockTime = 7 s

Courant Number mean: 0 max: 0
Time = 10.7s

DICPCG:  Solving for w, Initial residual = 0.000674041, Final residual = 1.05732e-06, No Iterations 1
Global Volume-Averaged Solid Fraction (Gs) = 0
DICPCG:  Solving for T, Initial residual = 0.0153129, Final residual = 1.91892e-05, No Iterations 1
GAMG:  Solving for p_rgh, Initial residual = 0, Final residual = 0, No Iterations 0
time step continuity errors : sum local = 0, global = 0, cumulative = 0
DILUPBiCGStab:  Solving for omega, Initial residual = 4.48224e-06, Final residual = 4.14482e-08, No Iterations 1
DILUPBiCGStab:  Solving for k, Initial residual = 0.0104419, Final residual = 7.62678e-06, No Iterations 1
ExecutionTime = 7.47258 s  ClockTime = 7 s

Courant Number mean: 0 max: 0
Time = 10.8s

DICPCG:  Solving for w, Initial residual = 0.00068053, Final residual = 1.0589e-06, No Iterations 1
Global Volume-Averaged Solid Fraction (Gs) = 0
DICPCG:  Solving for T, Initial residual = 0.0152798, Final residual = 1.91164e-05, No Iterations 1
GAMG:  Solving for p_rgh, Initial residual = 0, Final residual = 0, No Iterations 0
time step continuity errors : sum local = 0, global = 0, cumulative = 0
DILUPBiCGStab:  Solving for omega, Initial residual = 4.63799e-06, Final residual = 4.213e-08, No Iterations 1
DILUPBiCGStab:  Solving for k, Initial residual = 0.0104519, Final residual = 7.64052e-06, No Iterations 1
ExecutionTime = 7.53118 s  ClockTime = 7 s

Courant Number mean: 0 max: 0
Time = 10.9s

DICPCG:  Solving for w, Initial residual = 0.000680041, Final residual = 1.07191e-06, No Iterations 1
Global Volume-Averaged Solid Fraction (Gs) = 0
DICPCG:  Solving for T, Initial residual = 0.0152629, Final residual = 1.90755e-05, No Iterations 1
GAMG:  Solving for p_rgh, Initial residual = 0, Final residual = 0, No Iterations 0
time step continuity errors : sum local = 0, global = 0, cumulative = 0
DILUPBiCGStab:  Solving for omega, Initial residual = 4.77875e-06, Final residual = 4.24587e-08, No Iterations 1
DILUPBiCGStab:  Solving for k, Initial residual = 0.0104603, Final residual = 7.65494e-06, No Iterations 1
ExecutionTime = 7.59382 s  ClockTime = 7 s

Courant Number mean: 0 max: 0
Time = 11s

DICPCG:  Solving for w, Initial residual = 0.000667787, Final residual = 1.04078e-06, No Iterations 1
Global Volume-Averaged Solid Fraction (Gs) = 0
DICPCG:  Solving for T, Initial residual = 0.0153167, Final residual = 1.91262e-05, No Iterations 1
GAMG:  Solving for p_rgh, Initial residual = 0, Final residual = 0, No Iterations 0
time step continuity errors : sum local = 0, global = 0, cumulative = 0
DILUPBiCGStab:  Solving for omega, Initial residual = 4.90471e-06, Final residual = 4.24702e-08, No Iterations 1
DILUPBiCGStab:  Solving for k, Initial residual = 0.0104671, Final residual = 7.66993e-06, No Iterations 1
ExecutionTime = 7.71865 s  ClockTime = 7 s

Courant Number mean: 0 max: 0
Time = 11.1s

[...]
GAMG:  Solving for p_rgh, Initial residual = 0, Final residual = 0, No Iterations 0
time step continuity errors : sum local = 0, global = 0, cumulative = 0
DILUPBiCGStab:  Solving for omega, Initial residual = 9.43616e-09, Final residual = 9.43616e-09, No Iterations 0
DILUPBiCGStab:  Solving for k, Initial residual = 0.999884, Final residual = 0.0010923, No Iterations 1
bounding k, min: 6.86903e-17 max: 2.13778e-16 average: 1.76263e-16
ExecutionTime = 67.7582 s  ClockTime = 68 s

Courant Number mean: 0 max: 0
Time = 97.6s

DICPCG:  Solving for w, Initial residual = 0.000301833, Final residual = 4.04888e-07, No Iterations 1
Global Volume-Averaged Solid Fraction (Gs) = 0
DICPCG:  Solving for T, Initial residual = 0.0152498, Final residual = 1.90778e-05, No Iterations 1
GAMG:  Solving for p_rgh, Initial residual = 0, Final residual = 0, No Iterations 0
time step continuity errors : sum local = 0, global = 0, cumulative = 0
DILUPBiCGStab:  Solving for omega, Initial residual = 9.43616e-09, Final residual = 9.43616e-09, No Iterations 0
DILUPBiCGStab:  Solving for k, Initial residual = 0.999884, Final residual = 0.0010923, No Iterations 1
bounding k, min: 6.86903e-17 max: 2.13778e-16 average: 1.76263e-16
ExecutionTime = 67.8194 s  ClockTime = 68 s

Courant Number mean: 0 max: 0
Time = 97.7s

DICPCG:  Solving for w, Initial residual = 0.000297176, Final residual = 4.08657e-07, No Iterations 1
Global Volume-Averaged Solid Fraction (Gs) = 0
DICPCG:  Solving for T, Initial residual = 0.0152784, Final residual = 1.9146e-05, No Iterations 1
GAMG:  Solving for p_rgh, Initial residual = 0, Final residual = 0, No Iterations 0
time step continuity errors : sum local = 0, global = 0, cumulative = 0
DILUPBiCGStab:  Solving for omega, Initial residual = 9.43616e-09, Final residual = 9.43616e-09, No Iterations 0
DILUPBiCGStab:  Solving for k, Initial residual = 0.999884, Final residual = 0.0010923, No Iterations 1
bounding k, min: 6.86903e-17 max: 2.13778e-16 average: 1.76263e-16
ExecutionTime = 67.8809 s  ClockTime = 68 s

Courant Number mean: 0 max: 0
Time = 97.8s

DICPCG:  Solving for w, Initial residual = 0.000303904, Final residual = 4.07424e-07, No Iterations 1
Global Volume-Averaged Solid Fraction (Gs) = 0
DICPCG:  Solving for T, Initial residual = 0.0152578, Final residual = 1.90992e-05, No Iterations 1
GAMG:  Solving for p_rgh, Initial residual = 0, Final residual = 0, No Iterations 0
time step continuity errors : sum local = 0, global = 0, cumulative = 0
DILUPBiCGStab:  Solving for omega, Initial residual = 9.43616e-09, Final residual = 9.43616e-09, No Iterations 0
DILUPBiCGStab:  Solving for k, Initial residual = 0.999884, Final residual = 0.0010923, No Iterations 1
bounding k, min: 6.86903e-17 max: 2.13778e-16 average: 1.76263e-16
ExecutionTime = 67.9406 s  ClockTime = 68 s

Courant Number mean: 0 max: 0
Time = 97.9s

DICPCG:  Solving for w, Initial residual = 0.000298213, Final residual = 4.09535e-07, No Iterations 1
Global Volume-Averaged Solid Fraction (Gs) = 0
DICPCG:  Solving for T, Initial residual = 0.0152341, Final residual = 1.90654e-05, No Iterations 1
GAMG:  Solving for p_rgh, Initial residual = 0, Final residual = 0, No Iterations 0
time step continuity errors : sum local = 0, global = 0, cumulative = 0
DILUPBiCGStab:  Solving for omega, Initial residual = 9.43616e-09, Final residual = 9.43616e-09, No Iterations 0
DILUPBiCGStab:  Solving for k, Initial residual = 0.999884, Final residual = 0.0010923, No Iterations 1
bounding k, min: 6.86903e-17 max: 2.13778e-16 average: 1.76263e-16
ExecutionTime = 68.0003 s  ClockTime = 68 s

Courant Number mean: 0 max: 0
Time = 98s

DICPCG:  Solving for w, Initial residual = 0.000300799, Final residual = 4.04025e-07, No Iterations 1
Global Volume-Averaged Solid Fraction (Gs) = 0
DICPCG:  Solving for T, Initial residual = 0.015333, Final residual = 1.91334e-05, No Iterations 1
GAMG:  Solving for p_rgh, Initial residual = 0, Final residual = 0, No Iterations 0
time step continuity errors : sum local = 0, global = 0, cumulative = 0
DILUPBiCGStab:  Solving for omega, Initial residual = 9.43616e-09, Final residual = 9.43616e-09, No Iterations 0
DILUPBiCGStab:  Solving for k, Initial residual = 0.999884, Final residual = 0.0010923, No Iterations 1
bounding k, min: 6.86903e-17 max: 2.13778e-16 average: 1.76263e-16
ExecutionTime = 68.1148 s  ClockTime = 68 s

Courant Number mean: 0 max: 0
Time = 98.1s

DICPCG:  Solving for w, Initial residual = 0.000300284, Final residual = 4.12049e-07, No Iterations 1
Global Volume-Averaged Solid Fraction (Gs) = 0
DICPCG:  Solving for T, Initial residual = 0.0152788, Final residual = 1.9067e-05, No Iterations 1
GAMG:  Solving for p_rgh, Initial residual = 0, Final residual = 0, No Iterations 0
time step continuity errors : sum local = 0, global = 0, cumulative = 0
DILUPBiCGStab:  Solving for omega, Initial residual = 9.43616e-09, Final residual = 9.43616e-09, No Iterations 0
DILUPBiCGStab:  Solving for k, Initial residual = 0.999884, Final residual = 0.0010923, No Iterations 1
bounding k, min: 6.86903e-17 max: 2.13778e-16 average: 1.76263e-16
ExecutionTime = 68.1753 s  ClockTime = 68 s

Courant Number mean: 0 max: 0
Time = 98.2s

DICPCG:  Solving for w, Initial residual = 0.000301831, Final residual = 4.04884e-07, No Iterations 1
Global Volume-Averaged Solid Fraction (Gs) = 0
DICPCG:  Solving for T, Initial residual = 0.0152227, Final residual = 1.90632e-05, No Iterations 1
GAMG:  Solving for p_rgh, Initial residual = 0, Final residual = 0, No Iterations 0
time step continuity errors : sum local = 0, global = 0, cumulative = 0
DILUPBiCGStab:  Solving for omega, Initial residual = 9.43616e-09, Final residual = 9.43616e-09, No Iterations 0
DILUPBiCGStab:  Solving for k, Initial residual = 0.999884, Final residual = 0.0010923, No Iterations 1
bounding k, min: 6.86903e-17 max: 2.13778e-16 average: 1.76263e-16
ExecutionTime = 68.2362 s  ClockTime = 68 s

Courant Number mean: 0 max: 0
Time = 98.3s

DICPCG:  Solving for w, Initial residual = 0.000297179, Final residual = 4.08661e-07, No Iterations 1
Global Volume-Averaged Solid Fraction (Gs) = 0
DICPCG:  Solving for T, Initial residual = 0.0152945, Final residual = 1.9141e-05, No Iterations 1
GAMG:  Solving for p_rgh, Initial residual = 0, Final residual = 0, No Iterations 0
time step continuity errors : sum local = 0, global = 0, cumulative = 0
DILUPBiCGStab:  Solving for omega, Initial residual = 9.43616e-09, Final residual = 9.43616e-09, No Iterations 0
DILUPBiCGStab:  Solving for k, Initial residual = 0.999884, Final residual = 0.0010923, No Iterations 1
bounding k, min: 6.86903e-17 max: 2.13778e-16 average: 1.76263e-16
ExecutionTime = 68.2965 s  ClockTime = 68 s

Courant Number mean: 0 max: 0
Time = 98.4s

DICPCG:  Solving for w, Initial residual = 0.000303907, Final residual = 4.07428e-07, No Iterations 1
Global Volume-Averaged Solid Fraction (Gs) = 0
DICPCG:  Solving for T, Initial residual = 0.0152905, Final residual = 1.91234e-05, No Iterations 1
GAMG:  Solving for p_rgh, Initial residual = 0, Final residual = 0, No Iterations 0
time step continuity errors : sum local = 0, global = 0, cumulative = 0
DILUPBiCGStab:  Solving for omega, Initial residual = 9.43616e-09, Final residual = 9.43616e-09, No Iterations 0
DILUPBiCGStab:  Solving for k, Initial residual = 0.999884, Final residual = 0.0010923, No Iterations 1
bounding k, min: 6.86903e-17 max: 2.13778e-16 average: 1.76263e-16
ExecutionTime = 68.3567 s  ClockTime = 68 s

Courant Number mean: 0 max: 0
Time = 98.5s

DICPCG:  Solving for w, Initial residual = 0.00029821, Final residual = 4.09531e-07, No Iterations 1
Global Volume-Averaged Solid Fraction (Gs) = 0
DICPCG:  Solving for T, Initial residual = 0.0152298, Final residual = 1.90013e-05, No Iterations 1
GAMG:  Solving for p_rgh, Initial residual = 0, Final residual = 0, No Iterations 0
time step continuity errors : sum local = 0, global = 0, cumulative = 0
DILUPBiCGStab:  Solving for omega, Initial residual = 9.43616e-09, Final residual = 9.43616e-09, No Iterations 0
DILUPBiCGStab:  Solving for k, Initial residual = 0.999884, Final residual = 0.0010923, No Iterations 1
bounding k, min: 6.86903e-17 max: 2.13778e-16 average: 1.76263e-16
ExecutionTime = 68.417 s  ClockTime = 68 s

Courant Number mean: 0 max: 0
Time = 98.6s

DICPCG:  Solving for w, Initial residual = 0.000300796, Final residual = 4.04022e-07, No Iterations 1
Global Volume-Averaged Solid Fraction (Gs) = 0
DICPCG:  Solving for T, Initial residual = 0.0153058, Final residual = 1.91209e-05, No Iterations 1
GAMG:  Solving for p_rgh, Initial residual = 0, Final residual = 0, No Iterations 0
time step continuity errors : sum local = 0, global = 0, cumulative = 0
DILUPBiCGStab:  Solving for omega, Initial residual = 9.43616e-09, Final residual = 9.43616e-09, No Iterations 0
DILUPBiCGStab:  Solving for k, Initial residual = 0.999884, Final residual = 0.0010923, No Iterations 1
bounding k, min: 6.86903e-17 max: 2.13778e-16 average: 1.76263e-16
ExecutionTime = 68.4771 s  ClockTime = 68 s

Courant Number mean: 0 max: 0
Time = 98.7s

DICPCG:  Solving for w, Initial residual = 0.000300287, Final residual = 4.12053e-07, No Iterations 1
Global Volume-Averaged Solid Fraction (Gs) = 0
DICPCG:  Solving for T, Initial residual = 0.0152488, Final residual = 1.9072e-05, No Iterations 1
GAMG:  Solving for p_rgh, Initial residual = 0, Final residual = 0, No Iterations 0
time step continuity errors : sum local = 0, global = 0, cumulative = 0
DILUPBiCGStab:  Solving for omega, Initial residual = 9.43616e-09, Final residual = 9.43616e-09, No Iterations 0
DILUPBiCGStab:  Solving for k, Initial residual = 0.999884, Final residual = 0.0010923, No Iterations 1
bounding k, min: 6.86903e-17 max: 2.13778e-16 average: 1.76263e-16
ExecutionTime = 68.5372 s  ClockTime = 69 s

Courant Number mean: 0 max: 0
Time = 98.8s

DICPCG:  Solving for w, Initial residual = 0.000301833, Final residual = 4.04888e-07, No Iterations 1
Global Volume-Averaged Solid Fraction (Gs) = 0
DICPCG:  Solving for T, Initial residual = 0.0152468, Final residual = 1.90758e-05, No Iterations 1
GAMG:  Solving for p_rgh, Initial residual = 0, Final residual = 0, No Iterations 0
time step continuity errors : sum local = 0, global = 0, cumulative = 0
DILUPBiCGStab:  Solving for omega, Initial residual = 9.43616e-09, Final residual = 9.43616e-09, No Iterations 0
DILUPBiCGStab:  Solving for k, Initial residual = 0.999884, Final residual = 0.0010923, No Iterations 1
bounding k, min: 6.86903e-17 max: 2.13778e-16 average: 1.76263e-16
ExecutionTime = 68.5979 s  ClockTime = 69 s

Courant Number mean: 0 max: 0
Time = 98.9s

DICPCG:  Solving for w, Initial residual = 0.000297176, Final residual = 4.08657e-07, No Iterations 1
Global Volume-Averaged Solid Fraction (Gs) = 0
DICPCG:  Solving for T, Initial residual = 0.015319, Final residual = 1.91981e-05, No Iterations 1
GAMG:  Solving for p_rgh, Initial residual = 0, Final residual = 0, No Iterations 0
time step continuity errors : sum local = 0, global = 0, cumulative = 0
DILUPBiCGStab:  Solving for omega, Initial residual = 9.43616e-09, Final residual = 9.43616e-09, No Iterations 0
DILUPBiCGStab:  Solving for k, Initial residual = 0.999884, Final residual = 0.0010923, No Iterations 1
bounding k, min: 6.86903e-17 max: 2.13778e-16 average: 1.76263e-16
ExecutionTime = 68.659 s  ClockTime = 69 s

Courant Number mean: 0 max: 0
Time = 99s

DICPCG:  Solving for w, Initial residual = 0.000303904, Final residual = 4.07424e-07, No Iterations 1
Global Volume-Averaged Solid Fraction (Gs) = 0
DICPCG:  Solving for T, Initial residual = 0.0152347, Final residual = 1.90591e-05, No Iterations 1
GAMG:  Solving for p_rgh, Initial residual = 0, Final residual = 0, No Iterations 0
time step continuity errors : sum local = 0, global = 0, cumulative = 0
DILUPBiCGStab:  Solving for omega, Initial residual = 9.43616e-09, Final residual = 9.43616e-09, No Iterations 0
DILUPBiCGStab:  Solving for k, Initial residual = 0.999884, Final residual = 0.0010923, No Iterations 1
bounding k, min: 6.86903e-17 max: 2.13778e-16 average: 1.76263e-16
ExecutionTime = 68.7737 s  ClockTime = 69 s

Courant Number mean: 0 max: 0
Time = 99.1s

DICPCG:  Solving for w, Initial residual = 0.000298213, Final residual = 4.09535e-07, No Iterations 1
Global Volume-Averaged Solid Fraction (Gs) = 0
DICPCG:  Solving for T, Initial residual = 0.0152528, Final residual = 1.90667e-05, No Iterations 1
GAMG:  Solving for p_rgh, Initial residual = 0, Final residual = 0, No Iterations 0
time step continuity errors : sum local = 0, global = 0, cumulative = 0
DILUPBiCGStab:  Solving for omega, Initial residual = 9.43616e-09, Final residual = 9.43616e-09, No Iterations 0
DILUPBiCGStab:  Solving for k, Initial residual = 0.999884, Final residual = 0.0010923, No Iterations 1
bounding k, min: 6.86903e-17 max: 2.13778e-16 average: 1.76263e-16
ExecutionTime = 68.8354 s  ClockTime = 69 s

Courant Number mean: 0 max: 0
Time = 99.2s

DICPCG:  Solving for w, Initial residual = 0.000300799, Final residual = 4.04025e-07, No Iterations 1
Global Volume-Averaged Solid Fraction (Gs) = 0
DICPCG:  Solving for T, Initial residual = 0.0153392, Final residual = 1.9156e-05, No Iterations 1
GAMG:  Solving for p_rgh, Initial residual = 0, Final residual = 0, No Iterations 0
time step continuity errors : sum local = 0, global = 0, cumulative = 0
DILUPBiCGStab:  Solving for omega, Initial residual = 9.43616e-09, Final residual = 9.43616e-09, No Iterations 0
DILUPBiCGStab:  Solving for k, Initial residual = 0.999884, Final residual = 0.0010923, No Iterations 1
bounding k, min: 6.86903e-17 max: 2.13778e-16 average: 1.76263e-16
ExecutionTime = 68.8955 s  ClockTime = 69 s

Courant Number mean: 0 max: 0
Time = 99.3s

DICPCG:  Solving for w, Initial residual = 0.000300284, Final residual = 4.12049e-07, No Iterations 1
Global Volume-Averaged Solid Fraction (Gs) = 0
DICPCG:  Solving for T, Initial residual = 0.0152492, Final residual = 1.90191e-05, No Iterations 1
GAMG:  Solving for p_rgh, Initial residual = 0, Final residual = 0, No Iterations 0
time step continuity errors : sum local = 0, global = 0, cumulative = 0
DILUPBiCGStab:  Solving for omega, Initial residual = 9.43616e-09, Final residual = 9.43616e-09, No Iterations 0
DILUPBiCGStab:  Solving for k, Initial residual = 0.999884, Final residual = 0.0010923, No Iterations 1
bounding k, min: 6.86903e-17 max: 2.13778e-16 average: 1.76263e-16
ExecutionTime = 68.9548 s  ClockTime = 69 s

Courant Number mean: 0 max: 0
Time = 99.4s

DICPCG:  Solving for w, Initial residual = 0.000301831, Final residual = 4.04884e-07, No Iterations 1
Global Volume-Averaged Solid Fraction (Gs) = 0
DICPCG:  Solving for T, Initial residual = 0.0152329, Final residual = 1.90755e-05, No Iterations 1
GAMG:  Solving for p_rgh, Initial residual = 0, Final residual = 0, No Iterations 0
time step continuity errors : sum local = 0, global = 0, cumulative = 0
DILUPBiCGStab:  Solving for omega, Initial residual = 9.43616e-09, Final residual = 9.43616e-09, No Iterations 0
DILUPBiCGStab:  Solving for k, Initial residual = 0.999884, Final residual = 0.0010923, No Iterations 1
bounding k, min: 6.86903e-17 max: 2.13778e-16 average: 1.76263e-16
ExecutionTime = 69.0142 s  ClockTime = 69 s

Courant Number mean: 0 max: 0
Time = 99.5s

DICPCG:  Solving for w, Initial residual = 0.000297179, Final residual = 4.08661e-07, No Iterations 1
Global Volume-Averaged Solid Fraction (Gs) = 0
DICPCG:  Solving for T, Initial residual = 0.0152951, Final residual = 1.91401e-05, No Iterations 1
GAMG:  Solving for p_rgh, Initial residual = 0, Final residual = 0, No Iterations 0
time step continuity errors : sum local = 0, global = 0, cumulative = 0
DILUPBiCGStab:  Solving for omega, Initial residual = 9.43616e-09, Final residual = 9.43616e-09, No Iterations 0
DILUPBiCGStab:  Solving for k, Initial residual = 0.999884, Final residual = 0.0010923, No Iterations 1
bounding k, min: 6.86903e-17 max: 2.13778e-16 average: 1.76263e-16
ExecutionTime = 69.0741 s  ClockTime = 69 s

Courant Number mean: 0 max: 0
Time = 99.6s

DICPCG:  Solving for w, Initial residual = 0.000303907, Final residual = 4.07428e-07, No Iterations 1
Global Volume-Averaged Solid Fraction (Gs) = 0
DICPCG:  Solving for T, Initial residual = 0.0152958, Final residual = 1.91411e-05, No Iterations 1
GAMG:  Solving for p_rgh, Initial residual = 0, Final residual = 0, No Iterations 0
time step continuity errors : sum local = 0, global = 0, cumulative = 0
DILUPBiCGStab:  Solving for omega, Initial residual = 9.43616e-09, Final residual = 9.43616e-09, No Iterations 0
DILUPBiCGStab:  Solving for k, Initial residual = 0.999884, Final residual = 0.0010923, No Iterations 1
bounding k, min: 6.86903e-17 max: 2.13778e-16 average: 1.76263e-16
ExecutionTime = 69.1337 s  ClockTime = 69 s

Courant Number mean: 0 max: 0
Time = 99.7s

DICPCG:  Solving for w, Initial residual = 0.00029821, Final residual = 4.09531e-07, No Iterations 1
Global Volume-Averaged Solid Fraction (Gs) = 0
DICPCG:  Solving for T, Initial residual = 0.0152063, Final residual = 1.90005e-05, No Iterations 1
GAMG:  Solving for p_rgh, Initial residual = 0, Final residual = 0, No Iterations 0
time step continuity errors : sum local = 0, global = 0, cumulative = 0
DILUPBiCGStab:  Solving for omega, Initial residual = 9.43616e-09, Final residual = 9.43616e-09, No Iterations 0
DILUPBiCGStab:  Solving for k, Initial residual = 0.999884, Final residual = 0.0010923, No Iterations 1
bounding k, min: 6.86903e-17 max: 2.13778e-16 average: 1.76263e-16
ExecutionTime = 69.1934 s  ClockTime = 69 s

Courant Number mean: 0 max: 0
Time = 99.8s

DICPCG:  Solving for w, Initial residual = 0.000300796, Final residual = 4.04022e-07, No Iterations 1
Global Volume-Averaged Solid Fraction (Gs) = 0
DICPCG:  Solving for T, Initial residual = 0.0152928, Final residual = 1.91153e-05, No Iterations 1
GAMG:  Solving for p_rgh, Initial residual = 0, Final residual = 0, No Iterations 0
time step continuity errors : sum local = 0, global = 0, cumulative = 0
DILUPBiCGStab:  Solving for omega, Initial residual = 9.43616e-09, Final residual = 9.43616e-09, No Iterations 0
DILUPBiCGStab:  Solving for k, Initial residual = 0.999884, Final residual = 0.0010923, No Iterations 1
bounding k, min: 6.86903e-17 max: 2.13778e-16 average: 1.76263e-16
ExecutionTime = 69.2541 s  ClockTime = 69 s

Courant Number mean: 0 max: 0
Time = 99.9s

DICPCG:  Solving for w, Initial residual = 0.000300287, Final residual = 4.12053e-07, No Iterations 1
Global Volume-Averaged Solid Fraction (Gs) = 0
DICPCG:  Solving for T, Initial residual = 0.0152973, Final residual = 1.9134e-05, No Iterations 1
GAMG:  Solving for p_rgh, Initial residual = 0, Final residual = 0, No Iterations 0
time step continuity errors : sum local = 0, global = 0, cumulative = 0
DILUPBiCGStab:  Solving for omega, Initial residual = 9.43616e-09, Final residual = 9.43616e-09, No Iterations 0
DILUPBiCGStab:  Solving for k, Initial residual = 0.999884, Final residual = 0.0010923, No Iterations 1
bounding k, min: 6.86903e-17 max: 2.13778e-16 average: 1.76263e-16
ExecutionTime = 69.3141 s  ClockTime = 69 s

Courant Number mean: 0 max: 0
Time = 100s

DICPCG:  Solving for w, Initial residual = 0.000301833, Final residual = 4.04888e-07, No Iterations 1
Global Volume-Averaged Solid Fraction (Gs) = 0
DICPCG:  Solving for T, Initial residual = 0.0152455, Final residual = 1.90609e-05, No Iterations 1
GAMG:  Solving for p_rgh, Initial residual = 0, Final residual = 0, No Iterations 0
time step continuity errors : sum local = 0, global = 0, cumulative = 0
DILUPBiCGStab:  Solving for omega, Initial residual = 9.43616e-09, Final residual = 9.43616e-09, No Iterations 0
DILUPBiCGStab:  Solving for k, Initial residual = 0.999884, Final residual = 0.0010923, No Iterations 1
bounding k, min: 6.86903e-17 max: 2.13778e-16 average: 1.76263e-16
ExecutionTime = 69.4256 s  ClockTime = 69 s

End

