/*---------------------------------------------------------------------------*\
  =========                 |
  \\      /  F ield         | OpenFOAM: The Open Source CFD Toolbox
   \\    /   O peration     | Website:  https://openfoam.org
    \\  /    A nd           | Version:  13
     \\/     M anipulation  |
\*---------------------------------------------------------------------------*/
Build  : 13-cde978a97c93
Exec   : teseLB_definitive
Date   : Jan 30 2026
Time   : 21:02:56
Host   : "leonardomaximinobernardo"
PID    : 29353
I/O    : uncollated
Case   : /home/leonardomaximinobernardo/My_projects/teseLB_quantico/teseLB/validationCase_definitive
nProcs : 1
sigFpe : Enabling floating point exception trapping (FOAM_SIGFPE).
fileModificationChecking : Monitoring run-time modified files using timeStampMaster (fileModificationSkew 10)
allowSystemOperations : Allowing user-supplied system call operations

// * * * * * * * * * * * * * * * * * * * * * * * * * * * * * * * * * * * * * //
Create time

Create mesh for time = 0


PIMPLE: Convergence criteria found
        p_rgh: tolerance 0.0001
        U: tolerance 0.0001
        h: tolerance 0.0001
        "(k|epsilon|omega)": tolerance 0.001


PIMPLE: Operating solver in transient mode with 1 outer corrector
PIMPLE: Operating solver in PISO mode


Reading thermophysical properties

Reading field p_rgh

Reading field U

Reading/calculating face flux field phi

Reading field T

Reading field w

Creating viscosity model

Creating turbulence model

Selecting turbulence model type RAS
    Selecting RAS turbulence model kOmegaSST
Reading field alphat

Reading field difft


Reading g
No MRF models present

Courant Number mean: 0 max: 0
Selecting patchDistMethod meshWave

 Starting time loop

Courant Number mean: 0 max: 0
Time = 0.25s

DICPCG:  Solving for w, Initial residual = 0.361269, Final residual = 6.14823e-10, No Iterations 1
Global Volume-Averaged Solid Fraction (Gs) = 0
DICPCG:  Solving for T, Initial residual = 1, Final residual = 0.012021, No Iterations 1
GAMG:  Solving for p_rgh, Initial residual = 0, Final residual = 0, No Iterations 0
time step continuity errors : sum local = 0, global = 0, cumulative = 0
DILUPBiCGStab:  Solving for omega, Initial residual = 0.133322, Final residual = 0.000923923, No Iterations 1
DILUPBiCGStab:  Solving for k, Initial residual = 1, Final residual = 0.0152261, No Iterations 1
ExecutionTime = 1.40722 s  ClockTime = 2 s

Courant Number mean: 0 max: 0
Time = 0.5s

DICPCG:  Solving for w, Initial residual = 0.275216, Final residual = 4.837e-10, No Iterations 1
Global Volume-Averaged Solid Fraction (Gs) = 0.00284255
DICPCG:  Solving for T, Initial residual = 0.107601, Final residual = 0.00237673, No Iterations 1
GAMG:  Solving for p_rgh, Initial residual = 0, Final residual = 0, No Iterations 0
time step continuity errors : sum local = 0, global = 0, cumulative = 0
DILUPBiCGStab:  Solving for omega, Initial residual = 0.0103384, Final residual = 3.16968e-06, No Iterations 1
DILUPBiCGStab:  Solving for k, Initial residual = 0.337387, Final residual = 0.000314134, No Iterations 1
ExecutionTime = 1.75401 s  ClockTime = 2 s

Courant Number mean: 0 max: 0
Time = 0.75s

DICPCG:  Solving for w, Initial residual = 0.151873, Final residual = 2.85536e-10, No Iterations 1
Global Volume-Averaged Solid Fraction (Gs) = 0.00696568
DICPCG:  Solving for T, Initial residual = 0.0394488, Final residual = 0.000878231, No Iterations 1
GAMG:  Solving for p_rgh, Initial residual = 0, Final residual = 0, No Iterations 0
time step continuity errors : sum local = 0, global = 0, cumulative = 0
DILUPBiCGStab:  Solving for omega, Initial residual = 0.0010834, Final residual = 1.53158e-06, No Iterations 1
DILUPBiCGStab:  Solving for k, Initial residual = 0.0178214, Final residual = 3.8033e-05, No Iterations 1
ExecutionTime = 2.08325 s  ClockTime = 2 s

Courant Number mean: 0 max: 0
Time = 1s

DICPCG:  Solving for w, Initial residual = 0.113663, Final residual = 2.13372e-10, No Iterations 1
Global Volume-Averaged Solid Fraction (Gs) = 0.00784482
DICPCG:  Solving for T, Initial residual = 0.0263054, Final residual = 0.000398411, No Iterations 1
GAMG:  Solving for p_rgh, Initial residual = 0, Final residual = 0, No Iterations 0
time step continuity errors : sum local = 0, global = 0, cumulative = 0
DILUPBiCGStab:  Solving for omega, Initial residual = 0.000188126, Final residual = 8.4622e-07, No Iterations 1
DILUPBiCGStab:  Solving for k, Initial residual = 0.00556635, Final residual = 2.42906e-05, No Iterations 1
ExecutionTime = 2.40929 s  ClockTime = 3 s

Courant Number mean: 0 max: 0
Time = 1.25s

DICPCG:  Solving for w, Initial residual = 0.0874364, Final residual = 1.70233e-10, No Iterations 1
Global Volume-Averaged Solid Fraction (Gs) = 0.00860127
DICPCG:  Solving for T, Initial residual = 0.0473804, Final residual = 0.00065796, No Iterations 1
GAMG:  Solving for p_rgh, Initial residual = 0, Final residual = 0, No Iterations 0
time step continuity errors : sum local = 0, global = 0, cumulative = 0
DILUPBiCGStab:  Solving for omega, Initial residual = 7.95322e-05, Final residual = 5.14443e-07, No Iterations 1
DILUPBiCGStab:  Solving for k, Initial residual = 0.00257828, Final residual = 1.85592e-05, No Iterations 1
ExecutionTime = 2.73722 s  ClockTime = 3 s

Courant Number mean: 0 max: 0
Time = 1.5s

DICPCG:  Solving for w, Initial residual = 0.0735482, Final residual = 1.4242e-10, No Iterations 1
Global Volume-Averaged Solid Fraction (Gs) = 0.00969268
DICPCG:  Solving for T, Initial residual = 0.053275, Final residual = 0.001233, No Iterations 1
GAMG:  Solving for p_rgh, Initial residual = 0, Final residual = 0, No Iterations 0
time step continuity errors : sum local = 0, global = 0, cumulative = 0
DILUPBiCGStab:  Solving for omega, Initial residual = 4.88483e-05, Final residual = 4.04116e-07, No Iterations 1
DILUPBiCGStab:  Solving for k, Initial residual = 0.00158641, Final residual = 1.35689e-05, No Iterations 1
ExecutionTime = 3.07724 s  ClockTime = 3 s

Courant Number mean: 0 max: 0
Time = 1.75s

DICPCG:  Solving for w, Initial residual = 0.061012, Final residual = 1.20047e-10, No Iterations 1
Global Volume-Averaged Solid Fraction (Gs) = 0.00907537
DICPCG:  Solving for T, Initial residual = 0.0375778, Final residual = 0.000557015, No Iterations 1
GAMG:  Solving for p_rgh, Initial residual = 0, Final residual = 0, No Iterations 0
time step continuity errors : sum local = 0, global = 0, cumulative = 0
DILUPBiCGStab:  Solving for omega, Initial residual = 3.67199e-05, Final residual = 3.16241e-07, No Iterations 1
DILUPBiCGStab:  Solving for k, Initial residual = 0.00119205, Final residual = 9.70649e-06, No Iterations 1
ExecutionTime = 3.41235 s  ClockTime = 4 s

Courant Number mean: 0 max: 0
Time = 2s

DICPCG:  Solving for w, Initial residual = 0.0456755, Final residual = 8.92171e-11, No Iterations 1
Global Volume-Averaged Solid Fraction (Gs) = 0.00974391
DICPCG:  Solving for T, Initial residual = 0.0489573, Final residual = 0.00109337, No Iterations 1
GAMG:  Solving for p_rgh, Initial residual = 0, Final residual = 0, No Iterations 0
time step continuity errors : sum local = 0, global = 0, cumulative = 0
DILUPBiCGStab:  Solving for omega, Initial residual = 3.04906e-05, Final residual = 2.44508e-07, No Iterations 1
DILUPBiCGStab:  Solving for k, Initial residual = 0.00101012, Final residual = 7.38938e-06, No Iterations 1
ExecutionTime = 3.76328 s  ClockTime = 4 s

Courant Number mean: 0 max: 0
Time = 2.25s

DICPCG:  Solving for w, Initial residual = 0.0456354, Final residual = 8.96329e-11, No Iterations 1
Global Volume-Averaged Solid Fraction (Gs) = 0.00966182
DICPCG:  Solving for T, Initial residual = 0.0334371, Final residual = 0.000501285, No Iterations 1
GAMG:  Solving for p_rgh, Initial residual = 0, Final residual = 0, No Iterations 0
time step continuity errors : sum local = 0, global = 0, cumulative = 0
DILUPBiCGStab:  Solving for omega, Initial residual = 2.67761e-05, Final residual = 1.92267e-07, No Iterations 1
DILUPBiCGStab:  Solving for k, Initial residual = 0.000913694, Final residual = 6.05748e-06, No Iterations 1
ExecutionTime = 4.10077 s  ClockTime = 4 s

Courant Number mean: 0 max: 0
Time = 2.5s

DICPCG:  Solving for w, Initial residual = 0.0414033, Final residual = 8.10096e-11, No Iterations 1
Global Volume-Averaged Solid Fraction (Gs) = 0.00977128
DICPCG:  Solving for T, Initial residual = 0.0442994, Final residual = 0.000978326, No Iterations 1
GAMG:  Solving for p_rgh, Initial residual = 0, Final residual = 0, No Iterations 0
time step continuity errors : sum local = 0, global = 0, cumulative = 0
DILUPBiCGStab:  Solving for omega, Initial residual = 2.43414e-05, Final residual = 1.54105e-07, No Iterations 1
DILUPBiCGStab:  Solving for k, Initial residual = 0.000855811, Final residual = 5.20106e-06, No Iterations 1
ExecutionTime = 4.79901 s  ClockTime = 5 s

Courant Number mean: 0 max: 0
Time = 2.75s

DICPCG:  Solving for w, Initial residual = 0.0420229, Final residual = 8.26927e-11, No Iterations 1
Global Volume-Averaged Solid Fraction (Gs) = 0.0102328
DICPCG:  Solving for T, Initial residual = 0.0303593, Final residual = 0.000461414, No Iterations 1
GAMG:  Solving for p_rgh, Initial residual = 0, Final residual = 0, No Iterations 0
time step continuity errors : sum local = 0, global = 0, cumulative = 0
DILUPBiCGStab:  Solving for omega, Initial residual = 2.26795e-05, Final residual = 1.28299e-07, No Iterations 1
DILUPBiCGStab:  Solving for k, Initial residual = 0.000817493, Final residual = 4.64192e-06, No Iterations 1
ExecutionTime = 5.13977 s  ClockTime = 5 s

Courant Number mean: 0 max: 0
Time = 3s

DICPCG:  Solving for w, Initial residual = 0.032936, Final residual = 6.44077e-11, No Iterations 1
Global Volume-Averaged Solid Fraction (Gs) = 0.00979865
DICPCG:  Solving for T, Initial residual = 0.0128967, Final residual = 0.000337191, No Iterations 1
GAMG:  Solving for p_rgh, Initial residual = 0, Final residual = 0, No Iterations 0
time step continuity errors : sum local = 0, global = 0, cumulative = 0
DILUPBiCGStab:  Solving for omega, Initial residual = 2.1746e-05, Final residual = 1.09692e-07, No Iterations 1
DILUPBiCGStab:  Solving for k, Initial residual = 0.000790204, Final residual = 4.24992e-06, No Iterations 1
ExecutionTime = 5.49784 s  ClockTime = 6 s

Courant Number mean: 0 max: 0
Time = 3.25s

DICPCG:  Solving for w, Initial residual = 0.0329029, Final residual = 6.48769e-11, No Iterations 1
Global Volume-Averaged Solid Fraction (Gs) = 0.00996323
DICPCG:  Solving for T, Initial residual = 0.0473987, Final residual = 0.000924666, No Iterations 1
GAMG:  Solving for p_rgh, Initial residual = 0, Final residual = 0, No Iterations 0
time step continuity errors : sum local = 0, global = 0, cumulative = 0
DILUPBiCGStab:  Solving for omega, Initial residual = 2.12266e-05, Final residual = 1.00185e-07, No Iterations 1
DILUPBiCGStab:  Solving for k, Initial residual = 0.000769656, Final residual = 3.96147e-06, No Iterations 1
ExecutionTime = 5.82741 s  ClockTime = 6 s

Courant Number mean: 0 max: 0
Time = 3.5s

DICPCG:  Solving for w, Initial residual = 0.0284458, Final residual = 5.55164e-11, No Iterations 1
Global Volume-Averaged Solid Fraction (Gs) = 0.0102842
DICPCG:  Solving for T, Initial residual = 0.0269907, Final residual = 0.000397467, No Iterations 1
GAMG:  Solving for p_rgh, Initial residual = 0, Final residual = 0, No Iterations 0
time step continuity errors : sum local = 0, global = 0, cumulative = 0
DILUPBiCGStab:  Solving for omega, Initial residual = 2.07329e-05, Final residual = 9.37468e-08, No Iterations 1
DILUPBiCGStab:  Solving for k, Initial residual = 0.000753525, Final residual = 3.72797e-06, No Iterations 1
ExecutionTime = 6.17328 s  ClockTime = 7 s

Courant Number mean: 0 max: 0
Time = 3.75s

DICPCG:  Solving for w, Initial residual = 0.0278534, Final residual = 5.4725e-11, No Iterations 1
Global Volume-Averaged Solid Fraction (Gs) = 0.0099939
DICPCG:  Solving for T, Initial residual = 0.0112201, Final residual = 0.000302269, No Iterations 1
GAMG:  Solving for p_rgh, Initial residual = 0, Final residual = 0, No Iterations 0
time step continuity errors : sum local = 0, global = 0, cumulative = 0
DILUPBiCGStab:  Solving for omega, Initial residual = 2.02628e-05, Final residual = 8.8282e-08, No Iterations 1
DILUPBiCGStab:  Solving for k, Initial residual = 0.000740431, Final residual = 3.53962e-06, No Iterations 1
ExecutionTime = 6.51203 s  ClockTime = 7 s

Courant Number mean: 0 max: 0
Time = 4s

DICPCG:  Solving for w, Initial residual = 0.0275381, Final residual = 5.41264e-11, No Iterations 1
Global Volume-Averaged Solid Fraction (Gs) = 0.00997045
DICPCG:  Solving for T, Initial residual = 0.0442826, Final residual = 0.000857763, No Iterations 1
GAMG:  Solving for p_rgh, Initial residual = 0, Final residual = 0, No Iterations 0
time step continuity errors : sum local = 0, global = 0, cumulative = 0
DILUPBiCGStab:  Solving for omega, Initial residual = 1.98497e-05, Final residual = 8.39621e-08, No Iterations 1
DILUPBiCGStab:  Solving for k, Initial residual = 0.000729509, Final residual = 3.38959e-06, No Iterations 1
ExecutionTime = 6.84584 s  ClockTime = 7 s

Courant Number mean: 0 max: 0
Time = 4.25s

DICPCG:  Solving for w, Initial residual = 0.0244771, Final residual = 4.81211e-11, No Iterations 1
Global Volume-Averaged Solid Fraction (Gs) = 0.0106059
DICPCG:  Solving for T, Initial residual = 0.0249058, Final residual = 0.000361758, No Iterations 1
GAMG:  Solving for p_rgh, Initial residual = 0, Final residual = 0, No Iterations 0
time step continuity errors : sum local = 0, global = 0, cumulative = 0
DILUPBiCGStab:  Solving for omega, Initial residual = 1.94864e-05, Final residual = 8.0116e-08, No Iterations 1
DILUPBiCGStab:  Solving for k, Initial residual = 0.000720071, Final residual = 3.26613e-06, No Iterations 1
ExecutionTime = 7.18419 s  ClockTime = 8 s

Courant Number mean: 0 max: 0
Time = 4.5s

DICPCG:  Solving for w, Initial residual = 0.0222266, Final residual = 4.35237e-11, No Iterations 1
Global Volume-Averaged Solid Fraction (Gs) = 0.0103502
DICPCG:  Solving for T, Initial residual = 0.0102986, Final residual = 0.000281445, No Iterations 1
GAMG:  Solving for p_rgh, Initial residual = 0, Final residual = 0, No Iterations 0
time step continuity errors : sum local = 0, global = 0, cumulative = 0
DILUPBiCGStab:  Solving for omega, Initial residual = 1.91801e-05, Final residual = 7.69648e-08, No Iterations 1
DILUPBiCGStab:  Solving for k, Initial residual = 0.000719277, Final residual = 3.2683e-06, No Iterations 1
ExecutionTime = 7.53518 s  ClockTime = 8 s

Courant Number mean: 0 max: 0
Time = 4.75s

DICPCG:  Solving for w, Initial residual = 0.023352, Final residual = 4.59764e-11, No Iterations 1
Global Volume-Averaged Solid Fraction (Gs) = 0.00998051
DICPCG:  Solving for T, Initial residual = 0.0412034, Final residual = 0.00079525, No Iterations 1
GAMG:  Solving for p_rgh, Initial residual = 0, Final residual = 0, No Iterations 0
time step continuity errors : sum local = 0, global = 0, cumulative = 0
DILUPBiCGStab:  Solving for omega, Initial residual = 1.89422e-05, Final residual = 7.44867e-08, No Iterations 1
DILUPBiCGStab:  Solving for k, Initial residual = 0.000706888, Final residual = 3.06955e-06, No Iterations 1
ExecutionTime = 7.86724 s  ClockTime = 8 s

Courant Number mean: 0 max: 0
Time = 5s

DICPCG:  Solving for w, Initial residual = 0.0204777, Final residual = 4.01585e-11, No Iterations 1
Global Volume-Averaged Solid Fraction (Gs) = 0.0109623
DICPCG:  Solving for T, Initial residual = 0.0231717, Final residual = 0.00033645, No Iterations 1
GAMG:  Solving for p_rgh, Initial residual = 0, Final residual = 0, No Iterations 0
time step continuity errors : sum local = 0, global = 0, cumulative = 0
DILUPBiCGStab:  Solving for omega, Initial residual = 1.86972e-05, Final residual = 7.22545e-08, No Iterations 1
DILUPBiCGStab:  Solving for k, Initial residual = 0.000700833, Final residual = 2.99951e-06, No Iterations 1
ExecutionTime = 8.57916 s  ClockTime = 9 s

Courant Number mean: 0 max: 0
Time = 5.25s

DICPCG:  Solving for w, Initial residual = 0.0208653, Final residual = 4.10246e-11, No Iterations 1
Global Volume-Averaged Solid Fraction (Gs) = 0.0107176
DICPCG:  Solving for T, Initial residual = 0.00961311, Final residual = 0.000265724, No Iterations 1
GAMG:  Solving for p_rgh, Initial residual = 0, Final residual = 0, No Iterations 0
time step continuity errors : sum local = 0, global = 0, cumulative = 0
DILUPBiCGStab:  Solving for omega, Initial residual = 1.84488e-05, Final residual = 7.01236e-08, No Iterations 1
DILUPBiCGStab:  Solving for k, Initial residual = 0.000694884, Final residual = 2.92549e-06, No Iterations 1
ExecutionTime = 8.92435 s  ClockTime = 9 s

Courant Number mean: 0 max: 0
Time = 5.5s

DICPCG:  Solving for w, Initial residual = 0.0200358, Final residual = 3.94004e-11, No Iterations 1
Global Volume-Averaged Solid Fraction (Gs) = 0.0100812
DICPCG:  Solving for T, Initial residual = 0.00679823, Final residual = 0.000182686, No Iterations 1
GAMG:  Solving for p_rgh, Initial residual = 0, Final residual = 0, No Iterations 0
time step continuity errors : sum local = 0, global = 0, cumulative = 0
DILUPBiCGStab:  Solving for omega, Initial residual = 1.82005e-05, Final residual = 6.8077e-08, No Iterations 1
DILUPBiCGStab:  Solving for k, Initial residual = 0.000689358, Final residual = 2.85198e-06, No Iterations 1
ExecutionTime = 9.263 s  ClockTime = 10 s

Courant Number mean: 0 max: 0
Time = 5.75s

DICPCG:  Solving for w, Initial residual = 0.0172261, Final residual = 3.36347e-11, No Iterations 1
Global Volume-Averaged Solid Fraction (Gs) = 0.0100029
DICPCG:  Solving for T, Initial residual = 0.0408804, Final residual = 0.00076509, No Iterations 1
GAMG:  Solving for p_rgh, Initial residual = 0, Final residual = 0, No Iterations 0
time step continuity errors : sum local = 0, global = 0, cumulative = 0
DILUPBiCGStab:  Solving for omega, Initial residual = 1.79546e-05, Final residual = 6.60635e-08, No Iterations 1
DILUPBiCGStab:  Solving for k, Initial residual = 0.000684315, Final residual = 2.78503e-06, No Iterations 1
ExecutionTime = 9.57208 s  ClockTime = 10 s

Courant Number mean: 0 max: 0
Time = 6s

DICPCG:  Solving for w, Initial residual = 0.0173719, Final residual = 3.41089e-11, No Iterations 1
Global Volume-Averaged Solid Fraction (Gs) = 0.0110182
DICPCG:  Solving for T, Initial residual = 0.0215066, Final residual = 0.000298555, No Iterations 1
GAMG:  Solving for p_rgh, Initial residual = 0, Final residual = 0, No Iterations 0
time step continuity errors : sum local = 0, global = 0, cumulative = 0
DILUPBiCGStab:  Solving for omega, Initial residual = 1.77127e-05, Final residual = 6.41123e-08, No Iterations 1
DILUPBiCGStab:  Solving for k, Initial residual = 0.000679743, Final residual = 2.72132e-06, No Iterations 1
ExecutionTime = 9.91541 s  ClockTime = 10 s

Courant Number mean: 0 max: 0
Time = 6.25s

DICPCG:  Solving for w, Initial residual = 0.0186303, Final residual = 3.66708e-11, No Iterations 1
Global Volume-Averaged Solid Fraction (Gs) = 0.0108567
DICPCG:  Solving for T, Initial residual = 0.00867901, Final residual = 0.000242647, No Iterations 1
GAMG:  Solving for p_rgh, Initial residual = 0, Final residual = 0, No Iterations 0
time step continuity errors : sum local = 0, global = 0, cumulative = 0
DILUPBiCGStab:  Solving for omega, Initial residual = 1.74757e-05, Final residual = 6.22524e-08, No Iterations 1
DILUPBiCGStab:  Solving for k, Initial residual = 0.000675613, Final residual = 2.66329e-06, No Iterations 1
ExecutionTime = 10.2307 s  ClockTime = 11 s

Courant Number mean: 0 max: 0
Time = 6.5s

DICPCG:  Solving for w, Initial residual = 0.0165166, Final residual = 3.23837e-11, No Iterations 1
Global Volume-Averaged Solid Fraction (Gs) = 0.0102857
DICPCG:  Solving for T, Initial residual = 0.00610635, Final residual = 0.000168434, No Iterations 1
GAMG:  Solving for p_rgh, Initial residual = 0, Final residual = 0, No Iterations 0
time step continuity errors : sum local = 0, global = 0, cumulative = 0
DILUPBiCGStab:  Solving for omega, Initial residual = 1.72426e-05, Final residual = 6.03999e-08, No Iterations 1
DILUPBiCGStab:  Solving for k, Initial residual = 0.000671689, Final residual = 2.62013e-06, No Iterations 1
ExecutionTime = 10.5434 s  ClockTime = 11 s

Courant Number mean: 0 max: 0
Time = 6.75s

DICPCG:  Solving for w, Initial residual = 0.0142931, Final residual = 2.79419e-11, No Iterations 1
Global Volume-Averaged Solid Fraction (Gs) = 0.0100087
DICPCG:  Solving for T, Initial residual = 0.0386629, Final residual = 0.000723096, No Iterations 1
GAMG:  Solving for p_rgh, Initial residual = 0, Final residual = 0, No Iterations 0
time step continuity errors : sum local = 0, global = 0, cumulative = 0
DILUPBiCGStab:  Solving for omega, Initial residual = 1.70122e-05, Final residual = 5.85272e-08, No Iterations 1
DILUPBiCGStab:  Solving for k, Initial residual = 0.000670176, Final residual = 2.65117e-06, No Iterations 1
ExecutionTime = 10.8571 s  ClockTime = 11 s

Courant Number mean: 0 max: 0
Time = 7s

DICPCG:  Solving for w, Initial residual = 0.0157516, Final residual = 3.10812e-11, No Iterations 1
Global Volume-Averaged Solid Fraction (Gs) = 0.0113818
DICPCG:  Solving for T, Initial residual = 0.0192304, Final residual = 0.000265825, No Iterations 1
GAMG:  Solving for p_rgh, Initial residual = 0, Final residual = 0, No Iterations 0
time step continuity errors : sum local = 0, global = 0, cumulative = 0
DILUPBiCGStab:  Solving for omega, Initial residual = 1.67961e-05, Final residual = 5.68433e-08, No Iterations 1
DILUPBiCGStab:  Solving for k, Initial residual = 0.000665704, Final residual = 2.50399e-06, No Iterations 1
ExecutionTime = 11.1617 s  ClockTime = 12 s

Courant Number mean: 0 max: 0
Time = 7.25s

DICPCG:  Solving for w, Initial residual = 0.014381, Final residual = 2.82758e-11, No Iterations 1
Global Volume-Averaged Solid Fraction (Gs) = 0.0127422
DICPCG:  Solving for T, Initial residual = 0.0152947, Final residual = 0.000225217, No Iterations 1
GAMG:  Solving for p_rgh, Initial residual = 0, Final residual = 0, No Iterations 0
time step continuity errors : sum local = 0, global = 0, cumulative = 0
DILUPBiCGStab:  Solving for omega, Initial residual = 1.65864e-05, Final residual = 5.52026e-08, No Iterations 1
DILUPBiCGStab:  Solving for k, Initial residual = 0.000663372, Final residual = 2.44676e-06, No Iterations 1
ExecutionTime = 11.459 s  ClockTime = 12 s

Courant Number mean: 0 max: 0
Time = 7.5s

DICPCG:  Solving for w, Initial residual = 0.0156875, Final residual = 3.08897e-11, No Iterations 1
Global Volume-Averaged Solid Fraction (Gs) = 0.0112179
DICPCG:  Solving for T, Initial residual = 0.00647434, Final residual = 0.000206513, No Iterations 1
GAMG:  Solving for p_rgh, Initial residual = 0, Final residual = 0, No Iterations 0
time step continuity errors : sum local = 0, global = 0, cumulative = 0
DILUPBiCGStab:  Solving for omega, Initial residual = 1.63827e-05, Final residual = 5.36461e-08, No Iterations 1
DILUPBiCGStab:  Solving for k, Initial residual = 0.000661136, Final residual = 2.40393e-06, No Iterations 1
ExecutionTime = 12.1783 s  ClockTime = 13 s

Courant Number mean: 0 max: 0
Time = 7.75s

DICPCG:  Solving for w, Initial residual = 0.0133878, Final residual = 2.61625e-11, No Iterations 1
Global Volume-Averaged Solid Fraction (Gs) = 0.0104167
DICPCG:  Solving for T, Initial residual = 0.00491152, Final residual = 0.000155112, No Iterations 1
GAMG:  Solving for p_rgh, Initial residual = 0, Final residual = 0, No Iterations 0
time step continuity errors : sum local = 0, global = 0, cumulative = 0
DILUPBiCGStab:  Solving for omega, Initial residual = 1.61854e-05, Final residual = 5.22095e-08, No Iterations 1
DILUPBiCGStab:  Solving for k, Initial residual = 0.00065903, Final residual = 2.36374e-06, No Iterations 1
ExecutionTime = 12.4806 s  ClockTime = 13 s

Courant Number mean: 0 max: 0
Time = 8s

DICPCG:  Solving for w, Initial residual = 0.0128985, Final residual = 2.53886e-11, No Iterations 1
Global Volume-Averaged Solid Fraction (Gs) = 0.010015
DICPCG:  Solving for T, Initial residual = 0.0369434, Final residual = 0.000697072, No Iterations 1
GAMG:  Solving for p_rgh, Initial residual = 0, Final residual = 0, No Iterations 0
time step continuity errors : sum local = 0, global = 0, cumulative = 0
DILUPBiCGStab:  Solving for omega, Initial residual = 1.59946e-05, Final residual = 5.08012e-08, No Iterations 1
DILUPBiCGStab:  Solving for k, Initial residual = 0.000657097, Final residual = 2.32333e-06, No Iterations 1
ExecutionTime = 12.8059 s  ClockTime = 13 s

Courant Number mean: 0 max: 0
Time = 8.25s

DICPCG:  Solving for w, Initial residual = 0.0120309, Final residual = 2.34941e-11, No Iterations 1
Global Volume-Averaged Solid Fraction (Gs) = 0.0116505
DICPCG:  Solving for T, Initial residual = 0.0181961, Final residual = 0.000239763, No Iterations 1
GAMG:  Solving for p_rgh, Initial residual = 0, Final residual = 0, No Iterations 0
time step continuity errors : sum local = 0, global = 0, cumulative = 0
DILUPBiCGStab:  Solving for omega, Initial residual = 1.58106e-05, Final residual = 4.94711e-08, No Iterations 1
DILUPBiCGStab:  Solving for k, Initial residual = 0.000655365, Final residual = 2.28403e-06, No Iterations 1
ExecutionTime = 13.1236 s  ClockTime = 14 s

Courant Number mean: 0 max: 0
Time = 8.5s

DICPCG:  Solving for w, Initial residual = 0.013378, Final residual = 2.63541e-11, No Iterations 1
Global Volume-Averaged Solid Fraction (Gs) = 0.0128498
DICPCG:  Solving for T, Initial residual = 0.0144678, Final residual = 0.000212854, No Iterations 1
GAMG:  Solving for p_rgh, Initial residual = 0, Final residual = 0, No Iterations 0
time step continuity errors : sum local = 0, global = 0, cumulative = 0
DILUPBiCGStab:  Solving for omega, Initial residual = 1.56332e-05, Final residual = 4.82075e-08, No Iterations 1
DILUPBiCGStab:  Solving for k, Initial residual = 0.000653842, Final residual = 2.24876e-06, No Iterations 1
ExecutionTime = 13.4775 s  ClockTime = 14 s

Courant Number mean: 0 max: 0
Time = 8.75s

DICPCG:  Solving for w, Initial residual = 0.0123269, Final residual = 2.40653e-11, No Iterations 1
Global Volume-Averaged Solid Fraction (Gs) = 0.0113799
DICPCG:  Solving for T, Initial residual = 0.00613523, Final residual = 0.000191465, No Iterations 1
GAMG:  Solving for p_rgh, Initial residual = 0, Final residual = 0, No Iterations 0
time step continuity errors : sum local = 0, global = 0, cumulative = 0
DILUPBiCGStab:  Solving for omega, Initial residual = 1.54723e-05, Final residual = 4.72131e-08, No Iterations 1
DILUPBiCGStab:  Solving for k, Initial residual = 0.000652628, Final residual = 2.34941e-06, No Iterations 1
ExecutionTime = 13.7904 s  ClockTime = 14 s

Courant Number mean: 0 max: 0
Time = 9s

DICPCG:  Solving for w, Initial residual = 0.0124056, Final residual = 2.44518e-11, No Iterations 1
Global Volume-Averaged Solid Fraction (Gs) = 0.0106137
DICPCG:  Solving for T, Initial residual = 0.00455626, Final residual = 0.000146948, No Iterations 1
GAMG:  Solving for p_rgh, Initial residual = 0, Final residual = 0, No Iterations 0
time step continuity errors : sum local = 0, global = 0, cumulative = 0
DILUPBiCGStab:  Solving for omega, Initial residual = 1.52987e-05, Final residual = 4.58357e-08, No Iterations 1
DILUPBiCGStab:  Solving for k, Initial residual = 0.000651681, Final residual = 2.30351e-06, No Iterations 1
ExecutionTime = 14.0936 s  ClockTime = 14 s

Courant Number mean: 0 max: 0
Time = 9.25s

DICPCG:  Solving for w, Initial residual = 0.0107308, Final residual = 2.0955e-11, No Iterations 1
Global Volume-Averaged Solid Fraction (Gs) = 0.0101642
DICPCG:  Solving for T, Initial residual = 0.00410465, Final residual = 0.000105687, No Iterations 1
GAMG:  Solving for p_rgh, Initial residual = 0, Final residual = 0, No Iterations 0
time step continuity errors : sum local = 0, global = 0, cumulative = 0
DILUPBiCGStab:  Solving for omega, Initial residual = 1.51379e-05, Final residual = 4.46195e-08, No Iterations 1
DILUPBiCGStab:  Solving for k, Initial residual = 0.000649978, Final residual = 2.16226e-06, No Iterations 1
ExecutionTime = 14.402 s  ClockTime = 15 s

Courant Number mean: 0 max: 0
Time = 9.5s

DICPCG:  Solving for w, Initial residual = 0.0114538, Final residual = 2.24995e-11, No Iterations 1
Global Volume-Averaged Solid Fraction (Gs) = 0.0100129
DICPCG:  Solving for T, Initial residual = 0.0363382, Final residual = 0.000678949, No Iterations 1
GAMG:  Solving for p_rgh, Initial residual = 0, Final residual = 0, No Iterations 0
time step continuity errors : sum local = 0, global = 0, cumulative = 0
DILUPBiCGStab:  Solving for omega, Initial residual = 1.49848e-05, Final residual = 4.34823e-08, No Iterations 1
DILUPBiCGStab:  Solving for k, Initial residual = 0.000649346, Final residual = 2.10492e-06, No Iterations 1
ExecutionTime = 14.7358 s  ClockTime = 15 s

Courant Number mean: 0 max: 0
Time = 9.75s

DICPCG:  Solving for w, Initial residual = 0.0107521, Final residual = 2.11136e-11, No Iterations 1
Global Volume-Averaged Solid Fraction (Gs) = 0.0117801
DICPCG:  Solving for T, Initial residual = 0.0172117, Final residual = 0.000215666, No Iterations 1
GAMG:  Solving for p_rgh, Initial residual = 0, Final residual = 0, No Iterations 0
time step continuity errors : sum local = 0, global = 0, cumulative = 0
DILUPBiCGStab:  Solving for omega, Initial residual = 1.48381e-05, Final residual = 4.24433e-08, No Iterations 1
DILUPBiCGStab:  Solving for k, Initial residual = 0.000648979, Final residual = 2.07342e-06, No Iterations 1
ExecutionTime = 15.1608 s  ClockTime = 16 s

Courant Number mean: 0 max: 0
Time = 10s

DICPCG:  Solving for w, Initial residual = 0.0110995, Final residual = 2.21162e-11, No Iterations 1
Global Volume-Averaged Solid Fraction (Gs) = 0.0128941
DICPCG:  Solving for T, Initial residual = 0.0136746, Final residual = 0.000200667, No Iterations 1
GAMG:  Solving for p_rgh, Initial residual = 0, Final residual = 0, No Iterations 0
time step continuity errors : sum local = 0, global = 0, cumulative = 0
DILUPBiCGStab:  Solving for omega, Initial residual = 1.4697e-05, Final residual = 4.14412e-08, No Iterations 1
DILUPBiCGStab:  Solving for k, Initial residual = 0.000648799, Final residual = 2.04536e-06, No Iterations 1
ExecutionTime = 15.8591 s  ClockTime = 16 s

Courant Number mean: 0 max: 0
Time = 10.25s

DICPCG:  Solving for w, Initial residual = 0.00943087, Final residual = 1.85724e-11, No Iterations 1
Global Volume-Averaged Solid Fraction (Gs) = 0.0114953
DICPCG:  Solving for T, Initial residual = 0.00578396, Final residual = 0.000176005, No Iterations 1
GAMG:  Solving for p_rgh, Initial residual = 0, Final residual = 0, No Iterations 0
time step continuity errors : sum local = 0, global = 0, cumulative = 0
DILUPBiCGStab:  Solving for omega, Initial residual = 1.45612e-05, Final residual = 4.04895e-08, No Iterations 1
DILUPBiCGStab:  Solving for k, Initial residual = 0.000648767, Final residual = 2.01873e-06, No Iterations 1
ExecutionTime = 16.1676 s  ClockTime = 17 s

Courant Number mean: 0 max: 0
Time = 10.5s

DICPCG:  Solving for w, Initial residual = 0.0096212, Final residual = 1.90239e-11, No Iterations 1
Global Volume-Averaged Solid Fraction (Gs) = 0.0107729
DICPCG:  Solving for T, Initial residual = 0.0041945, Final residual = 0.000137753, No Iterations 1
GAMG:  Solving for p_rgh, Initial residual = 0, Final residual = 0, No Iterations 0
time step continuity errors : sum local = 0, global = 0, cumulative = 0
DILUPBiCGStab:  Solving for omega, Initial residual = 1.44303e-05, Final residual = 3.95912e-08, No Iterations 1
DILUPBiCGStab:  Solving for k, Initial residual = 0.000648876, Final residual = 1.99388e-06, No Iterations 1
ExecutionTime = 16.4912 s  ClockTime = 17 s

Courant Number mean: 0 max: 0
Time = 10.75s

DICPCG:  Solving for w, Initial residual = 0.00945413, Final residual = 1.87305e-11, No Iterations 1
Global Volume-Averaged Solid Fraction (Gs) = 0.0103534
DICPCG:  Solving for T, Initial residual = 0.00376506, Final residual = 9.88319e-05, No Iterations 1
GAMG:  Solving for p_rgh, Initial residual = 0, Final residual = 0, No Iterations 0
time step continuity errors : sum local = 0, global = 0, cumulative = 0
DILUPBiCGStab:  Solving for omega, Initial residual = 1.43041e-05, Final residual = 3.87185e-08, No Iterations 1
DILUPBiCGStab:  Solving for k, Initial residual = 0.00064912, Final residual = 1.9712e-06, No Iterations 1
ExecutionTime = 16.7969 s  ClockTime = 17 s

Courant Number mean: 0 max: 0
Time = 11s

DICPCG:  Solving for w, Initial residual = 0.00939209, Final residual = 1.86083e-11, No Iterations 1
Global Volume-Averaged Solid Fraction (Gs) = 0.0100824
DICPCG:  Solving for T, Initial residual = 0.00347655, Final residual = 6.96356e-05, No Iterations 1
GAMG:  Solving for p_rgh, Initial residual = 0, Final residual = 0, No Iterations 0
time step continuity errors : sum local = 0, global = 0, cumulative = 0
DILUPBiCGStab:  Solving for omega, Initial residual = 1.41824e-05, Final residual = 3.78695e-08, No Iterations 1
DILUPBiCGStab:  Solving for k, Initial residual = 0.000649508, Final residual = 1.94889e-06, No Iterations 1
ExecutionTime = 17.1012 s  ClockTime = 18 s

Courant Number mean: 0 max: 0
Time = 11.25s

DICPCG:  Solving for w, Initial residual = 0.00936677, Final residual = 1.84824e-11, No Iterations 1
Global Volume-Averaged Solid Fraction (Gs) = 0.0100129
DICPCG:  Solving for T, Initial residual = 0.0353465, Final residual = 0.000659299, No Iterations 1
GAMG:  Solving for p_rgh, Initial residual = 0, Final residual = 0, No Iterations 0
time step continuity errors : sum local = 0, global = 0, cumulative = 0
DILUPBiCGStab:  Solving for omega, Initial residual = 1.40678e-05, Final residual = 3.71312e-08, No Iterations 1
DILUPBiCGStab:  Solving for k, Initial residual = 0.000650756, Final residual = 2.05027e-06, No Iterations 1
ExecutionTime = 17.436 s  ClockTime = 18 s

Courant Number mean: 0 max: 0
Time = 11.5s

DICPCG:  Solving for w, Initial residual = 0.00859329, Final residual = 1.68898e-11, No Iterations 1
Global Volume-Averaged Solid Fraction (Gs) = 0.0119722
DICPCG:  Solving for T, Initial residual = 0.0163395, Final residual = 0.000194555, No Iterations 1
GAMG:  Solving for p_rgh, Initial residual = 0, Final residual = 0, No Iterations 0
time step continuity errors : sum local = 0, global = 0, cumulative = 0
DILUPBiCGStab:  Solving for omega, Initial residual = 1.39506e-05, Final residual = 3.62698e-08, No Iterations 1
DILUPBiCGStab:  Solving for k, Initial residual = 0.000650421, Final residual = 2.00833e-06, No Iterations 1
ExecutionTime = 17.7954 s  ClockTime = 18 s

Courant Number mean: 0 max: 0
Time = 11.75s

DICPCG:  Solving for w, Initial residual = 0.00859051, Final residual = 1.70524e-11, No Iterations 1
Global Volume-Averaged Solid Fraction (Gs) = 0.0129671
DICPCG:  Solving for T, Initial residual = 0.0129783, Final residual = 0.000190096, No Iterations 1
GAMG:  Solving for p_rgh, Initial residual = 0, Final residual = 0, No Iterations 0
time step continuity errors : sum local = 0, global = 0, cumulative = 0
DILUPBiCGStab:  Solving for omega, Initial residual = 1.38399e-05, Final residual = 3.54819e-08, No Iterations 1
DILUPBiCGStab:  Solving for k, Initial residual = 0.000651159, Final residual = 1.89521e-06, No Iterations 1
ExecutionTime = 18.1678 s  ClockTime = 19 s

Courant Number mean: 0 max: 0
Time = 12s

DICPCG:  Solving for w, Initial residual = 0.00863416, Final residual = 1.70756e-11, No Iterations 1
Global Volume-Averaged Solid Fraction (Gs) = 0.0116259
DICPCG:  Solving for T, Initial residual = 0.00548074, Final residual = 0.000162667, No Iterations 1
GAMG:  Solving for p_rgh, Initial residual = 0, Final residual = 0, No Iterations 0
time step continuity errors : sum local = 0, global = 0, cumulative = 0
DILUPBiCGStab:  Solving for omega, Initial residual = 1.37332e-05, Final residual = 3.47383e-08, No Iterations 1
DILUPBiCGStab:  Solving for k, Initial residual = 0.000652102, Final residual = 1.85634e-06, No Iterations 1
ExecutionTime = 18.5029 s  ClockTime = 19 s

Courant Number mean: 0 max: 0
Time = 12.25s

DICPCG:  Solving for w, Initial residual = 0.00838606, Final residual = 1.64587e-11, No Iterations 1
Global Volume-Averaged Solid Fraction (Gs) = 0.0109396
DICPCG:  Solving for T, Initial residual = 0.00388616, Final residual = 0.000129606, No Iterations 1
GAMG:  Solving for p_rgh, Initial residual = 0, Final residual = 0, No Iterations 0
time step continuity errors : sum local = 0, global = 0, cumulative = 0
DILUPBiCGStab:  Solving for omega, Initial residual = 1.36302e-05, Final residual = 3.40262e-08, No Iterations 1
DILUPBiCGStab:  Solving for k, Initial residual = 0.000653222, Final residual = 1.83678e-06, No Iterations 1
ExecutionTime = 18.8692 s  ClockTime = 19 s

Courant Number mean: 0 max: 0
Time = 12.5s

DICPCG:  Solving for w, Initial residual = 0.00821639, Final residual = 1.61795e-11, No Iterations 1
Global Volume-Averaged Solid Fraction (Gs) = 0.0105451
DICPCG:  Solving for T, Initial residual = 0.00347183, Final residual = 9.30433e-05, No Iterations 1
GAMG:  Solving for p_rgh, Initial residual = 0, Final residual = 0, No Iterations 0
time step continuity errors : sum local = 0, global = 0, cumulative = 0
DILUPBiCGStab:  Solving for omega, Initial residual = 1.35307e-05, Final residual = 3.3364e-08, No Iterations 1
DILUPBiCGStab:  Solving for k, Initial residual = 0.00065449, Final residual = 1.81875e-06, No Iterations 1
ExecutionTime = 19.6101 s  ClockTime = 20 s

Courant Number mean: 0 max: 0
Time = 12.75s

DICPCG:  Solving for w, Initial residual = 0.00823221, Final residual = 1.64098e-11, No Iterations 1
Global Volume-Averaged Solid Fraction (Gs) = 0.0102928
DICPCG:  Solving for T, Initial residual = 0.00320401, Final residual = 6.51885e-05, No Iterations 1
GAMG:  Solving for p_rgh, Initial residual = 0, Final residual = 0, No Iterations 0
time step continuity errors : sum local = 0, global = 0, cumulative = 0
DILUPBiCGStab:  Solving for omega, Initial residual = 1.34344e-05, Final residual = 3.27188e-08, No Iterations 1
DILUPBiCGStab:  Solving for k, Initial residual = 0.000655885, Final residual = 1.803e-06, No Iterations 1
ExecutionTime = 19.9372 s  ClockTime = 20 s

Courant Number mean: 0 max: 0
Time = 13s

DICPCG:  Solving for w, Initial residual = 0.00775659, Final residual = 1.53608e-11, No Iterations 1
Global Volume-Averaged Solid Fraction (Gs) = 0.0101169
DICPCG:  Solving for T, Initial residual = 0.00298816, Final residual = 4.64439e-05, No Iterations 1
GAMG:  Solving for p_rgh, Initial residual = 0, Final residual = 0, No Iterations 0
time step continuity errors : sum local = 0, global = 0, cumulative = 0
DILUPBiCGStab:  Solving for omega, Initial residual = 1.33411e-05, Final residual = 3.20892e-08, No Iterations 1
DILUPBiCGStab:  Solving for k, Initial residual = 0.000657395, Final residual = 1.78752e-06, No Iterations 1
ExecutionTime = 20.2652 s  ClockTime = 21 s

Courant Number mean: 0 max: 0
Time = 13.25s

DICPCG:  Solving for w, Initial residual = 0.00740934, Final residual = 1.45877e-11, No Iterations 1
Global Volume-Averaged Solid Fraction (Gs) = 0.010015
DICPCG:  Solving for T, Initial residual = 0.0338353, Final residual = 0.000633222, No Iterations 1
GAMG:  Solving for p_rgh, Initial residual = 0, Final residual = 0, No Iterations 0
time step continuity errors : sum local = 0, global = 0, cumulative = 0
DILUPBiCGStab:  Solving for omega, Initial residual = 1.32507e-05, Final residual = 3.1475e-08, No Iterations 1
DILUPBiCGStab:  Solving for k, Initial residual = 0.000659009, Final residual = 1.77289e-06, No Iterations 1
ExecutionTime = 20.5927 s  ClockTime = 21 s

Courant Number mean: 0 max: 0
Time = 13.5s

DICPCG:  Solving for w, Initial residual = 0.00809715, Final residual = 1.60147e-11, No Iterations 1
Global Volume-Averaged Solid Fraction (Gs) = 0.012209
DICPCG:  Solving for T, Initial residual = 0.0157469, Final residual = 0.000180058, No Iterations 1
GAMG:  Solving for p_rgh, Initial residual = 0, Final residual = 0, No Iterations 0
time step continuity errors : sum local = 0, global = 0, cumulative = 0
DILUPBiCGStab:  Solving for omega, Initial residual = 1.31636e-05, Final residual = 3.08972e-08, No Iterations 1
DILUPBiCGStab:  Solving for k, Initial residual = 0.000660512, Final residual = 1.84759e-06, No Iterations 1
ExecutionTime = 20.9246 s  ClockTime = 21 s

Courant Number mean: 0 max: 0
Time = 13.75s

DICPCG:  Solving for w, Initial residual = 0.00780396, Final residual = 1.54724e-11, No Iterations 1
Global Volume-Averaged Solid Fraction (Gs) = 0.0130608
DICPCG:  Solving for T, Initial residual = 0.0123846, Final residual = 0.00018067, No Iterations 1
GAMG:  Solving for p_rgh, Initial residual = 0, Final residual = 0, No Iterations 0
time step continuity errors : sum local = 0, global = 0, cumulative = 0
DILUPBiCGStab:  Solving for omega, Initial residual = 1.30764e-05, Final residual = 3.03205e-08, No Iterations 1
DILUPBiCGStab:  Solving for k, Initial residual = 0.000662283, Final residual = 1.82598e-06, No Iterations 1
ExecutionTime = 21.2557 s  ClockTime = 22 s

Courant Number mean: 0 max: 0
Time = 14s

DICPCG:  Solving for w, Initial residual = 0.00683831, Final residual = 1.35131e-11, No Iterations 1
Global Volume-Averaged Solid Fraction (Gs) = 0.0117898
DICPCG:  Solving for T, Initial residual = 0.00528472, Final residual = 0.000152755, No Iterations 1
GAMG:  Solving for p_rgh, Initial residual = 0, Final residual = 0, No Iterations 0
time step continuity errors : sum local = 0, global = 0, cumulative = 0
DILUPBiCGStab:  Solving for omega, Initial residual = 1.29938e-05, Final residual = 2.97823e-08, No Iterations 1
DILUPBiCGStab:  Solving for k, Initial residual = 0.000664191, Final residual = 1.73741e-06, No Iterations 1
ExecutionTime = 21.5847 s  ClockTime = 22 s

Courant Number mean: 0 max: 0
Time = 14.25s

DICPCG:  Solving for w, Initial residual = 0.00661034, Final residual = 1.31523e-11, No Iterations 1
Global Volume-Averaged Solid Fraction (Gs) = 0.0111269
DICPCG:  Solving for T, Initial residual = 0.00364244, Final residual = 0.000123279, No Iterations 1
GAMG:  Solving for p_rgh, Initial residual = 0, Final residual = 0, No Iterations 0
time step continuity errors : sum local = 0, global = 0, cumulative = 0
DILUPBiCGStab:  Solving for omega, Initial residual = 1.29135e-05, Final residual = 2.92542e-08, No Iterations 1
DILUPBiCGStab:  Solving for k, Initial residual = 0.000666206, Final residual = 1.71259e-06, No Iterations 1
ExecutionTime = 21.9138 s  ClockTime = 22 s

Courant Number mean: 0 max: 0
Time = 14.5s

DICPCG:  Solving for w, Initial residual = 0.00648757, Final residual = 1.28881e-11, No Iterations 1
Global Volume-Averaged Solid Fraction (Gs) = 0.0107502
DICPCG:  Solving for T, Initial residual = 0.00322741, Final residual = 8.8737e-05, No Iterations 1
GAMG:  Solving for p_rgh, Initial residual = 0, Final residual = 0, No Iterations 0
time step continuity errors : sum local = 0, global = 0, cumulative = 0
DILUPBiCGStab:  Solving for omega, Initial residual = 1.28355e-05, Final residual = 2.87547e-08, No Iterations 1
DILUPBiCGStab:  Solving for k, Initial residual = 0.000668337, Final residual = 1.6996e-06, No Iterations 1
ExecutionTime = 22.2393 s  ClockTime = 23 s

Courant Number mean: 0 max: 0
Time = 14.75s

DICPCG:  Solving for w, Initial residual = 0.00752518, Final residual = 1.50772e-11, No Iterations 1
Global Volume-Averaged Solid Fraction (Gs) = 0.0105118
DICPCG:  Solving for T, Initial residual = 0.00297277, Final residual = 6.19404e-05, No Iterations 1
GAMG:  Solving for p_rgh, Initial residual = 0, Final residual = 0, No Iterations 0
time step continuity errors : sum local = 0, global = 0, cumulative = 0
DILUPBiCGStab:  Solving for omega, Initial residual = 1.27597e-05, Final residual = 2.82731e-08, No Iterations 1
DILUPBiCGStab:  Solving for k, Initial residual = 0.000670579, Final residual = 1.68734e-06, No Iterations 1
ExecutionTime = 22.5676 s  ClockTime = 23 s

Courant Number mean: 0 max: 0
Time = 15s

DICPCG:  Solving for w, Initial residual = 0.00626024, Final residual = 1.24825e-11, No Iterations 1
Global Volume-Averaged Solid Fraction (Gs) = 0.0103471
DICPCG:  Solving for T, Initial residual = 0.00277419, Final residual = 4.3767e-05, No Iterations 1
GAMG:  Solving for p_rgh, Initial residual = 0, Final residual = 0, No Iterations 0
time step continuity errors : sum local = 0, global = 0, cumulative = 0
DILUPBiCGStab:  Solving for omega, Initial residual = 1.26861e-05, Final residual = 2.78018e-08, No Iterations 1
DILUPBiCGStab:  Solving for k, Initial residual = 0.000672922, Final residual = 1.67516e-06, No Iterations 1
ExecutionTime = 23.2759 s  ClockTime = 24 s

Courant Number mean: 0 max: 0
Time = 15.25s

DICPCG:  Solving for w, Initial residual = 0.00574717, Final residual = 1.1467e-11, No Iterations 1
Global Volume-Averaged Solid Fraction (Gs) = 0.0102255
DICPCG:  Solving for T, Initial residual = 0.00262651, Final residual = 3.18691e-05, No Iterations 1
GAMG:  Solving for p_rgh, Initial residual = 0, Final residual = 0, No Iterations 0
time step continuity errors : sum local = 0, global = 0, cumulative = 0
DILUPBiCGStab:  Solving for omega, Initial residual = 1.26145e-05, Final residual = 2.73403e-08, No Iterations 1
DILUPBiCGStab:  Solving for k, Initial residual = 0.000675361, Final residual = 1.66441e-06, No Iterations 1
ExecutionTime = 23.5772 s  ClockTime = 24 s

Courant Number mean: 0 max: 0
Time = 15.5s

DICPCG:  Solving for w, Initial residual = 0.00540318, Final residual = 1.08293e-11, No Iterations 1
Global Volume-Averaged Solid Fraction (Gs) = 0.0101314
DICPCG:  Solving for T, Initial residual = 0.0024962, Final residual = 2.38967e-05, No Iterations 1
GAMG:  Solving for p_rgh, Initial residual = 0, Final residual = 0, No Iterations 0
time step continuity errors : sum local = 0, global = 0, cumulative = 0
DILUPBiCGStab:  Solving for omega, Initial residual = 1.25448e-05, Final residual = 2.68879e-08, No Iterations 1
DILUPBiCGStab:  Solving for k, Initial residual = 0.000677889, Final residual = 1.65441e-06, No Iterations 1
ExecutionTime = 23.8792 s  ClockTime = 24 s

Courant Number mean: 0 max: 0
Time = 15.75s

DICPCG:  Solving for w, Initial residual = 0.00599415, Final residual = 1.21357e-11, No Iterations 1
Global Volume-Averaged Solid Fraction (Gs) = 0.0100561
DICPCG:  Solving for T, Initial residual = 0.00238311, Final residual = 1.85191e-05, No Iterations 1
GAMG:  Solving for p_rgh, Initial residual = 0, Final residual = 0, No Iterations 0
time step continuity errors : sum local = 0, global = 0, cumulative = 0
DILUPBiCGStab:  Solving for omega, Initial residual = 1.24769e-05, Final residual = 2.64453e-08, No Iterations 1
DILUPBiCGStab:  Solving for k, Initial residual = 0.000680505, Final residual = 1.64507e-06, No Iterations 1
ExecutionTime = 24.2054 s  ClockTime = 25 s

Courant Number mean: 0 max: 0
Time = 16s

DICPCG:  Solving for w, Initial residual = 0.00576194, Final residual = 1.16081e-11, No Iterations 1
Global Volume-Averaged Solid Fraction (Gs) = 0.0100155
DICPCG:  Solving for T, Initial residual = 0.0327981, Final residual = 0.000617179, No Iterations 1
GAMG:  Solving for p_rgh, Initial residual = 0, Final residual = 0, No Iterations 0
time step continuity errors : sum local = 0, global = 0, cumulative = 0
DILUPBiCGStab:  Solving for omega, Initial residual = 1.24099e-05, Final residual = 2.60309e-08, No Iterations 1
DILUPBiCGStab:  Solving for k, Initial residual = 0.000682981, Final residual = 1.67734e-06, No Iterations 1
ExecutionTime = 24.5365 s  ClockTime = 25 s

Courant Number mean: 0 max: 0
Time = 16.25s

DICPCG:  Solving for w, Initial residual = 0.00571018, Final residual = 1.15689e-11, No Iterations 1
Global Volume-Averaged Solid Fraction (Gs) = 0.0123361
DICPCG:  Solving for T, Initial residual = 0.0146615, Final residual = 0.00015595, No Iterations 1
GAMG:  Solving for p_rgh, Initial residual = 0, Final residual = 0, No Iterations 0
time step continuity errors : sum local = 0, global = 0, cumulative = 0
DILUPBiCGStab:  Solving for omega, Initial residual = 1.2344e-05, Final residual = 2.56186e-08, No Iterations 1
DILUPBiCGStab:  Solving for k, Initial residual = 0.000685743, Final residual = 1.6785e-06, No Iterations 1
ExecutionTime = 24.8457 s  ClockTime = 25 s

Courant Number mean: 0 max: 0
Time = 16.5s

DICPCG:  Solving for w, Initial residual = 0.00493986, Final residual = 9.9185e-12, No Iterations 1
Global Volume-Averaged Solid Fraction (Gs) = 0.0130787
DICPCG:  Solving for T, Initial residual = 0.0119563, Final residual = 0.000173996, No Iterations 1
GAMG:  Solving for p_rgh, Initial residual = 0, Final residual = 0, No Iterations 0
time step continuity errors : sum local = 0, global = 0, cumulative = 0
DILUPBiCGStab:  Solving for omega, Initial residual = 1.22813e-05, Final residual = 2.52284e-08, No Iterations 1
DILUPBiCGStab:  Solving for k, Initial residual = 0.000688631, Final residual = 1.61554e-06, No Iterations 1
ExecutionTime = 25.1404 s  ClockTime = 26 s

Courant Number mean: 0 max: 0
Time = 16.75s

DICPCG:  Solving for w, Initial residual = 0.00554678, Final residual = 1.11925e-11, No Iterations 1
Global Volume-Averaged Solid Fraction (Gs) = 0.0119069
DICPCG:  Solving for T, Initial residual = 0.00601702, Final residual = 0.000153057, No Iterations 1
GAMG:  Solving for p_rgh, Initial residual = 0, Final residual = 0, No Iterations 0
time step continuity errors : sum local = 0, global = 0, cumulative = 0
DILUPBiCGStab:  Solving for omega, Initial residual = 1.222e-05, Final residual = 2.48545e-08, No Iterations 1
DILUPBiCGStab:  Solving for k, Initial residual = 0.000691607, Final residual = 1.60251e-06, No Iterations 1
ExecutionTime = 25.4678 s  ClockTime = 26 s

Courant Number mean: 0 max: 0
Time = 17s

DICPCG:  Solving for w, Initial residual = 0.00499238, Final residual = 9.99344e-12, No Iterations 1
Global Volume-Averaged Solid Fraction (Gs) = 0.0125068
DICPCG:  Solving for T, Initial residual = 0.00951176, Final residual = 0.00015096, No Iterations 1
GAMG:  Solving for p_rgh, Initial residual = 0, Final residual = 0, No Iterations 0
time step continuity errors : sum local = 0, global = 0, cumulative = 0
DILUPBiCGStab:  Solving for omega, Initial residual = 1.21599e-05, Final residual = 2.44878e-08, No Iterations 1
DILUPBiCGStab:  Solving for k, Initial residual = 0.000694672, Final residual = 1.59365e-06, No Iterations 1
ExecutionTime = 25.7797 s  ClockTime = 26 s

Courant Number mean: 0 max: 0
Time = 17.25s

DICPCG:  Solving for w, Initial residual = 0.00569154, Final residual = 1.15032e-11, No Iterations 1
Global Volume-Averaged Solid Fraction (Gs) = 0.0114024
DICPCG:  Solving for T, Initial residual = 0.00417983, Final residual = 0.000124966, No Iterations 1
GAMG:  Solving for p_rgh, Initial residual = 0, Final residual = 0, No Iterations 0
time step continuity errors : sum local = 0, global = 0, cumulative = 0
DILUPBiCGStab:  Solving for omega, Initial residual = 1.21012e-05, Final residual = 2.41285e-08, No Iterations 1
DILUPBiCGStab:  Solving for k, Initial residual = 0.000697828, Final residual = 1.58521e-06, No Iterations 1
ExecutionTime = 26.0938 s  ClockTime = 27 s

Courant Number mean: 0 max: 0
Time = 17.5s

DICPCG:  Solving for w, Initial residual = 0.00513589, Final residual = 1.03168e-11, No Iterations 1
Global Volume-Averaged Solid Fraction (Gs) = 0.0109173
DICPCG:  Solving for T, Initial residual = 0.00292281, Final residual = 0.000101024, No Iterations 1
GAMG:  Solving for p_rgh, Initial residual = 0, Final residual = 0, No Iterations 0
time step continuity errors : sum local = 0, global = 0, cumulative = 0
DILUPBiCGStab:  Solving for omega, Initial residual = 1.20437e-05, Final residual = 2.37767e-08, No Iterations 1
DILUPBiCGStab:  Solving for k, Initial residual = 0.000701068, Final residual = 1.57712e-06, No Iterations 1
ExecutionTime = 26.7822 s  ClockTime = 27 s

Courant Number mean: 0 max: 0
Time = 17.75s

DICPCG:  Solving for w, Initial residual = 0.00528467, Final residual = 1.07049e-11, No Iterations 1
Global Volume-Averaged Solid Fraction (Gs) = 0.0106496
DICPCG:  Solving for T, Initial residual = 0.00266043, Final residual = 9.58208e-05, No Iterations 1
GAMG:  Solving for p_rgh, Initial residual = 0, Final residual = 0, No Iterations 0
time step continuity errors : sum local = 0, global = 0, cumulative = 0
DILUPBiCGStab:  Solving for omega, Initial residual = 1.19874e-05, Final residual = 2.34325e-08, No Iterations 1
DILUPBiCGStab:  Solving for k, Initial residual = 0.000704387, Final residual = 1.56997e-06, No Iterations 1
ExecutionTime = 27.0886 s  ClockTime = 28 s

Courant Number mean: 0 max: 0
Time = 18s

DICPCG:  Solving for w, Initial residual = 0.00482179, Final residual = 9.72992e-12, No Iterations 1
Global Volume-Averaged Solid Fraction (Gs) = 0.0104962
DICPCG:  Solving for T, Initial residual = 0.00246598, Final residual = 6.83715e-05, No Iterations 1
GAMG:  Solving for p_rgh, Initial residual = 0, Final residual = 0, No Iterations 0
time step continuity errors : sum local = 0, global = 0, cumulative = 0
DILUPBiCGStab:  Solving for omega, Initial residual = 1.19312e-05, Final residual = 2.31101e-08, No Iterations 1
DILUPBiCGStab:  Solving for k, Initial residual = 0.000707534, Final residual = 1.57546e-06, No Iterations 1
ExecutionTime = 27.3949 s  ClockTime = 28 s

Courant Number mean: 0 max: 0
Time = 18.25s

DICPCG:  Solving for w, Initial residual = 0.00499778, Final residual = 9.97999e-12, No Iterations 1
Global Volume-Averaged Solid Fraction (Gs) = 0.0103906
DICPCG:  Solving for T, Initial residual = 0.00234008, Final residual = 6.00807e-05, No Iterations 1
GAMG:  Solving for p_rgh, Initial residual = 0, Final residual = 0, No Iterations 0
time step continuity errors : sum local = 0, global = 0, cumulative = 0
DILUPBiCGStab:  Solving for omega, Initial residual = 1.1876e-05, Final residual = 2.27825e-08, No Iterations 1
DILUPBiCGStab:  Solving for k, Initial residual = 0.000710985, Final residual = 1.5993e-06, No Iterations 1
ExecutionTime = 27.7033 s  ClockTime = 28 s

Courant Number mean: 0 max: 0
Time = 18.5s

DICPCG:  Solving for w, Initial residual = 0.00525325, Final residual = 1.0601e-11, No Iterations 1
Global Volume-Averaged Solid Fraction (Gs) = 0.0103103
DICPCG:  Solving for T, Initial residual = 0.00222082, Final residual = 3.28333e-05, No Iterations 1
GAMG:  Solving for p_rgh, Initial residual = 0, Final residual = 0, No Iterations 0
time step continuity errors : sum local = 0, global = 0, cumulative = 0
DILUPBiCGStab:  Solving for omega, Initial residual = 1.18233e-05, Final residual = 2.24682e-08, No Iterations 1
DILUPBiCGStab:  Solving for k, Initial residual = 0.000714552, Final residual = 1.54739e-06, No Iterations 1
ExecutionTime = 27.9986 s  ClockTime = 28 s

Courant Number mean: 0 max: 0
Time = 18.75s

DICPCG:  Solving for w, Initial residual = 0.00439092, Final residual = 8.83785e-12, No Iterations 1
Global Volume-Averaged Solid Fraction (Gs) = 0.0102503
DICPCG:  Solving for T, Initial residual = 0.00214153, Final residual = 3.28133e-05, No Iterations 1
GAMG:  Solving for p_rgh, Initial residual = 0, Final residual = 0, No Iterations 0
time step continuity errors : sum local = 0, global = 0, cumulative = 0
DILUPBiCGStab:  Solving for omega, Initial residual = 1.17714e-05, Final residual = 2.21655e-08, No Iterations 1
DILUPBiCGStab:  Solving for k, Initial residual = 0.000718193, Final residual = 1.53947e-06, No Iterations 1
ExecutionTime = 28.3012 s  ClockTime = 29 s

Courant Number mean: 0 max: 0
Time = 19s

DICPCG:  Solving for w, Initial residual = 0.00472485, Final residual = 9.59068e-12, No Iterations 1
Global Volume-Averaged Solid Fraction (Gs) = 0.0101989
DICPCG:  Solving for T, Initial residual = 0.00205268, Final residual = 1.71344e-05, No Iterations 1
GAMG:  Solving for p_rgh, Initial residual = 0, Final residual = 0, No Iterations 0
time step continuity errors : sum local = 0, global = 0, cumulative = 0
DILUPBiCGStab:  Solving for omega, Initial residual = 1.17203e-05, Final residual = 2.18781e-08, No Iterations 1
DILUPBiCGStab:  Solving for k, Initial residual = 0.00072191, Final residual = 1.53298e-06, No Iterations 1
ExecutionTime = 28.6023 s  ClockTime = 29 s

Courant Number mean: 0 max: 0
Time = 19.25s

DICPCG:  Solving for w, Initial residual = 0.00482252, Final residual = 9.74303e-12, No Iterations 1
Global Volume-Averaged Solid Fraction (Gs) = 0.0101581
DICPCG:  Solving for T, Initial residual = 0.00198429, Final residual = 1.30884e-05, No Iterations 1
GAMG:  Solving for p_rgh, Initial residual = 0, Final residual = 0, No Iterations 0
time step continuity errors : sum local = 0, global = 0, cumulative = 0
DILUPBiCGStab:  Solving for omega, Initial residual = 1.167e-05, Final residual = 2.15971e-08, No Iterations 1
DILUPBiCGStab:  Solving for k, Initial residual = 0.000725699, Final residual = 1.52663e-06, No Iterations 1
ExecutionTime = 28.9008 s  ClockTime = 29 s

Courant Number mean: 0 max: 0
Time = 19.5s

DICPCG:  Solving for w, Initial residual = 0.00475891, Final residual = 9.51421e-12, No Iterations 1
Global Volume-Averaged Solid Fraction (Gs) = 0.0101244
DICPCG:  Solving for T, Initial residual = 0.0019241, Final residual = 8.57204e-06, No Iterations 1
GAMG:  Solving for p_rgh, Initial residual = 0, Final residual = 0, No Iterations 0
time step continuity errors : sum local = 0, global = 0, cumulative = 0
DILUPBiCGStab:  Solving for omega, Initial residual = 1.16206e-05, Final residual = 2.13206e-08, No Iterations 1
DILUPBiCGStab:  Solving for k, Initial residual = 0.000729561, Final residual = 1.521e-06, No Iterations 1
ExecutionTime = 29.2069 s  ClockTime = 30 s

Courant Number mean: 0 max: 0
Time = 19.75s

DICPCG:  Solving for w, Initial residual = 0.00401645, Final residual = 8.214e-12, No Iterations 1
Global Volume-Averaged Solid Fraction (Gs) = 0.0100968
DICPCG:  Solving for T, Initial residual = 0.00187351, Final residual = 6.99837e-06, No Iterations 1
GAMG:  Solving for p_rgh, Initial residual = 0, Final residual = 0, No Iterations 0
time step continuity errors : sum local = 0, global = 0, cumulative = 0
DILUPBiCGStab:  Solving for omega, Initial residual = 1.1572e-05, Final residual = 2.10492e-08, No Iterations 1
DILUPBiCGStab:  Solving for k, Initial residual = 0.000733495, Final residual = 1.51514e-06, No Iterations 1
ExecutionTime = 29.5197 s  ClockTime = 30 s

Courant Number mean: 0 max: 0
Time = 20s

DICPCG:  Solving for w, Initial residual = 0.00411046, Final residual = 8.5321e-12, No Iterations 1
Global Volume-Averaged Solid Fraction (Gs) = 0.010074
DICPCG:  Solving for T, Initial residual = 0.00182931, Final residual = 5.96099e-06, No Iterations 1
GAMG:  Solving for p_rgh, Initial residual = 0, Final residual = 0, No Iterations 0
time step continuity errors : sum local = 0, global = 0, cumulative = 0
DILUPBiCGStab:  Solving for omega, Initial residual = 1.15242e-05, Final residual = 2.07825e-08, No Iterations 1
DILUPBiCGStab:  Solving for k, Initial residual = 0.000737497, Final residual = 1.51004e-06, No Iterations 1
ExecutionTime = 30.2067 s  ClockTime = 31 s

Courant Number mean: 0 max: 0
Time = 20.25s

DICPCG:  Solving for w, Initial residual = 0.00369461, Final residual = 7.56024e-12, No Iterations 1
Global Volume-Averaged Solid Fraction (Gs) = 0.0100552
DICPCG:  Solving for T, Initial residual = 0.00179016, Final residual = 5.17565e-06, No Iterations 1
GAMG:  Solving for p_rgh, Initial residual = 0, Final residual = 0, No Iterations 0
time step continuity errors : sum local = 0, global = 0, cumulative = 0
DILUPBiCGStab:  Solving for omega, Initial residual = 1.14763e-05, Final residual = 2.05353e-08, No Iterations 1
DILUPBiCGStab:  Solving for k, Initial residual = 0.000741306, Final residual = 1.50382e-06, No Iterations 1
ExecutionTime = 30.5213 s  ClockTime = 31 s

Courant Number mean: 0 max: 0
Time = 20.5s

DICPCG:  Solving for w, Initial residual = 0.00394991, Final residual = 8.06279e-12, No Iterations 1
Global Volume-Averaged Solid Fraction (Gs) = 0.0100396
DICPCG:  Solving for T, Initial residual = 0.00175524, Final residual = 4.55054e-06, No Iterations 1
GAMG:  Solving for p_rgh, Initial residual = 0, Final residual = 0, No Iterations 0
time step continuity errors : sum local = 0, global = 0, cumulative = 0
DILUPBiCGStab:  Solving for omega, Initial residual = 1.14289e-05, Final residual = 2.02755e-08, No Iterations 1
DILUPBiCGStab:  Solving for k, Initial residual = 0.000745413, Final residual = 1.53543e-06, No Iterations 1
ExecutionTime = 30.8305 s  ClockTime = 31 s

Courant Number mean: 0 max: 0
Time = 20.75s

DICPCG:  Solving for w, Initial residual = 0.00424528, Final residual = 8.67265e-12, No Iterations 1
Global Volume-Averaged Solid Fraction (Gs) = 0.0100268
DICPCG:  Solving for T, Initial residual = 0.00172389, Final residual = 4.04358e-06, No Iterations 1
GAMG:  Solving for p_rgh, Initial residual = 0, Final residual = 0, No Iterations 0
time step continuity errors : sum local = 0, global = 0, cumulative = 0
DILUPBiCGStab:  Solving for omega, Initial residual = 1.13832e-05, Final residual = 2.00262e-08, No Iterations 1
DILUPBiCGStab:  Solving for k, Initial residual = 0.000749624, Final residual = 1.49472e-06, No Iterations 1
ExecutionTime = 31.1324 s  ClockTime = 32 s

Courant Number mean: 0 max: 0
Time = 21s

DICPCG:  Solving for w, Initial residual = 0.00365577, Final residual = 7.49886e-12, No Iterations 1
Global Volume-Averaged Solid Fraction (Gs) = 0.010017
DICPCG:  Solving for T, Initial residual = 0.0268175, Final residual = 0.000518818, No Iterations 1
GAMG:  Solving for p_rgh, Initial residual = 0, Final residual = 0, No Iterations 0
time step continuity errors : sum local = 0, global = 0, cumulative = 0
DILUPBiCGStab:  Solving for omega, Initial residual = 1.13381e-05, Final residual = 1.97851e-08, No Iterations 1
DILUPBiCGStab:  Solving for k, Initial residual = 0.000753902, Final residual = 1.4889e-06, No Iterations 1
ExecutionTime = 31.4402 s  ClockTime = 32 s

Courant Number mean: 0 max: 0
Time = 21.25s

DICPCG:  Solving for w, Initial residual = 0.00347513, Final residual = 7.10089e-12, No Iterations 1
Global Volume-Averaged Solid Fraction (Gs) = 0.0120725
DICPCG:  Solving for T, Initial residual = 0.016358, Final residual = 0.000211584, No Iterations 1
GAMG:  Solving for p_rgh, Initial residual = 0, Final residual = 0, No Iterations 0
time step continuity errors : sum local = 0, global = 0, cumulative = 0
DILUPBiCGStab:  Solving for omega, Initial residual = 1.12936e-05, Final residual = 1.95526e-08, No Iterations 1
DILUPBiCGStab:  Solving for k, Initial residual = 0.000758246, Final residual = 1.4844e-06, No Iterations 1
ExecutionTime = 31.7501 s  ClockTime = 32 s

Courant Number mean: 0 max: 0
Time = 21.5s

DICPCG:  Solving for w, Initial residual = 0.00400746, Final residual = 8.23014e-12, No Iterations 1
Global Volume-Averaged Solid Fraction (Gs) = 0.0129889
DICPCG:  Solving for T, Initial residual = 0.0113278, Final residual = 0.000157805, No Iterations 1
GAMG:  Solving for p_rgh, Initial residual = 0, Final residual = 0, No Iterations 0
time step continuity errors : sum local = 0, global = 0, cumulative = 0
DILUPBiCGStab:  Solving for omega, Initial residual = 1.12496e-05, Final residual = 1.93302e-08, No Iterations 1
DILUPBiCGStab:  Solving for k, Initial residual = 0.000762649, Final residual = 1.48021e-06, No Iterations 1
ExecutionTime = 32.0587 s  ClockTime = 33 s

Courant Number mean: 0 max: 0
Time = 21.75s

DICPCG:  Solving for w, Initial residual = 0.00349152, Final residual = 7.12751e-12, No Iterations 1
Global Volume-Averaged Solid Fraction (Gs) = 0.0122454
DICPCG:  Solving for T, Initial residual = 0.00623792, Final residual = 0.00013711, No Iterations 1
GAMG:  Solving for p_rgh, Initial residual = 0, Final residual = 0, No Iterations 0
time step continuity errors : sum local = 0, global = 0, cumulative = 0
DILUPBiCGStab:  Solving for omega, Initial residual = 1.12062e-05, Final residual = 1.91117e-08, No Iterations 1
DILUPBiCGStab:  Solving for k, Initial residual = 0.000767115, Final residual = 1.47634e-06, No Iterations 1
ExecutionTime = 32.3685 s  ClockTime = 33 s

Courant Number mean: 0 max: 0
Time = 22s

DICPCG:  Solving for w, Initial residual = 0.00413618, Final residual = 8.50743e-12, No Iterations 1
Global Volume-Averaged Solid Fraction (Gs) = 0.0124711
DICPCG:  Solving for T, Initial residual = 0.00822448, Final residual = 0.000139021, No Iterations 1
GAMG:  Solving for p_rgh, Initial residual = 0, Final residual = 0, No Iterations 0
time step continuity errors : sum local = 0, global = 0, cumulative = 0
DILUPBiCGStab:  Solving for omega, Initial residual = 1.11632e-05, Final residual = 1.88971e-08, No Iterations 1
DILUPBiCGStab:  Solving for k, Initial residual = 0.00077164, Final residual = 1.47275e-06, No Iterations 1
ExecutionTime = 32.6849 s  ClockTime = 33 s

Courant Number mean: 0 max: 0
Time = 22.25s

DICPCG:  Solving for w, Initial residual = 0.00333758, Final residual = 6.79855e-12, No Iterations 1
Global Volume-Averaged Solid Fraction (Gs) = 0.0116629
DICPCG:  Solving for T, Initial residual = 0.00458326, Final residual = 0.000117436, No Iterations 1
GAMG:  Solving for p_rgh, Initial residual = 0, Final residual = 0, No Iterations 0
time step continuity errors : sum local = 0, global = 0, cumulative = 0
DILUPBiCGStab:  Solving for omega, Initial residual = 1.11202e-05, Final residual = 1.86926e-08, No Iterations 1
DILUPBiCGStab:  Solving for k, Initial residual = 0.000775954, Final residual = 1.46822e-06, No Iterations 1
ExecutionTime = 32.9834 s  ClockTime = 33 s

Courant Number mean: 0 max: 0
Time = 22.5s

DICPCG:  Solving for w, Initial residual = 0.0034521, Final residual = 7.0957e-12, No Iterations 1
Global Volume-Averaged Solid Fraction (Gs) = 0.0111286
DICPCG:  Solving for T, Initial residual = 0.00280644, Final residual = 9.69775e-05, No Iterations 1
GAMG:  Solving for p_rgh, Initial residual = 0, Final residual = 0, No Iterations 0
time step continuity errors : sum local = 0, global = 0, cumulative = 0
DILUPBiCGStab:  Solving for omega, Initial residual = 1.10772e-05, Final residual = 1.84819e-08, No Iterations 1
DILUPBiCGStab:  Solving for k, Initial residual = 0.000780571, Final residual = 1.49802e-06, No Iterations 1
ExecutionTime = 33.6903 s  ClockTime = 34 s

Courant Number mean: 0 max: 0
Time = 22.75s

DICPCG:  Solving for w, Initial residual = 0.00331865, Final residual = 6.76189e-12, No Iterations 1
Global Volume-Averaged Solid Fraction (Gs) = 0.0108645
DICPCG:  Solving for T, Initial residual = 0.00233671, Final residual = 6.49648e-05, No Iterations 1
GAMG:  Solving for p_rgh, Initial residual = 0, Final residual = 0, No Iterations 0
time step continuity errors : sum local = 0, global = 0, cumulative = 0
DILUPBiCGStab:  Solving for omega, Initial residual = 1.10357e-05, Final residual = 1.82772e-08, No Iterations 1
DILUPBiCGStab:  Solving for k, Initial residual = 0.000785289, Final residual = 1.46256e-06, No Iterations 1
ExecutionTime = 34.0417 s  ClockTime = 35 s

Courant Number mean: 0 max: 0
Time = 23s

DICPCG:  Solving for w, Initial residual = 0.00383691, Final residual = 7.90212e-12, No Iterations 1
Global Volume-Averaged Solid Fraction (Gs) = 0.0107134
DICPCG:  Solving for T, Initial residual = 0.00214713, Final residual = 4.05467e-05, No Iterations 1
GAMG:  Solving for p_rgh, Initial residual = 0, Final residual = 0, No Iterations 0
time step continuity errors : sum local = 0, global = 0, cumulative = 0
DILUPBiCGStab:  Solving for omega, Initial residual = 1.09946e-05, Final residual = 1.80783e-08, No Iterations 1
DILUPBiCGStab:  Solving for k, Initial residual = 0.000790064, Final residual = 1.45737e-06, No Iterations 1
ExecutionTime = 34.3445 s  ClockTime = 35 s

Courant Number mean: 0 max: 0
Time = 23.25s

DICPCG:  Solving for w, Initial residual = 0.00367521, Final residual = 7.53597e-12, No Iterations 1
Global Volume-Averaged Solid Fraction (Gs) = 0.0106172
DICPCG:  Solving for T, Initial residual = 0.0020246, Final residual = 2.56305e-05, No Iterations 1
GAMG:  Solving for p_rgh, Initial residual = 0, Final residual = 0, No Iterations 0
time step continuity errors : sum local = 0, global = 0, cumulative = 0
DILUPBiCGStab:  Solving for omega, Initial residual = 1.09538e-05, Final residual = 1.78879e-08, No Iterations 1
DILUPBiCGStab:  Solving for k, Initial residual = 0.000794895, Final residual = 1.45452e-06, No Iterations 1
ExecutionTime = 34.645 s  ClockTime = 35 s

Courant Number mean: 0 max: 0
Time = 23.5s

DICPCG:  Solving for w, Initial residual = 0.00346103, Final residual = 7.1184e-12, No Iterations 1
Global Volume-Averaged Solid Fraction (Gs) = 0.0105508
DICPCG:  Solving for T, Initial residual = 0.00193175, Final residual = 1.70457e-05, No Iterations 1
GAMG:  Solving for p_rgh, Initial residual = 0, Final residual = 0, No Iterations 0
time step continuity errors : sum local = 0, global = 0, cumulative = 0
DILUPBiCGStab:  Solving for omega, Initial residual = 1.09134e-05, Final residual = 1.77035e-08, No Iterations 1
DILUPBiCGStab:  Solving for k, Initial residual = 0.000799782, Final residual = 1.45231e-06, No Iterations 1
ExecutionTime = 34.9422 s  ClockTime = 35 s

Courant Number mean: 0 max: 0
Time = 23.75s

DICPCG:  Solving for w, Initial residual = 0.00318681, Final residual = 6.51469e-12, No Iterations 1
Global Volume-Averaged Solid Fraction (Gs) = 0.0105024
DICPCG:  Solving for T, Initial residual = 0.00185533, Final residual = 1.22909e-05, No Iterations 1
GAMG:  Solving for p_rgh, Initial residual = 0, Final residual = 0, No Iterations 0
time step continuity errors : sum local = 0, global = 0, cumulative = 0
DILUPBiCGStab:  Solving for omega, Initial residual = 1.08734e-05, Final residual = 1.7522e-08, No Iterations 1
DILUPBiCGStab:  Solving for k, Initial residual = 0.000804718, Final residual = 1.44976e-06, No Iterations 1
ExecutionTime = 35.2678 s  ClockTime = 36 s

Courant Number mean: 0 max: 0
Time = 24s

DICPCG:  Solving for w, Initial residual = 0.003431, Final residual = 7.02832e-12, No Iterations 1
Global Volume-Averaged Solid Fraction (Gs) = 0.0104655
DICPCG:  Solving for T, Initial residual = 0.00179433, Final residual = 9.3365e-06, No Iterations 1
GAMG:  Solving for p_rgh, Initial residual = 0, Final residual = 0, No Iterations 0
time step continuity errors : sum local = 0, global = 0, cumulative = 0
DILUPBiCGStab:  Solving for omega, Initial residual = 1.0833e-05, Final residual = 1.73344e-08, No Iterations 1
DILUPBiCGStab:  Solving for k, Initial residual = 0.000809416, Final residual = 1.44691e-06, No Iterations 1
ExecutionTime = 35.5887 s  ClockTime = 36 s

Courant Number mean: 0 max: 0
Time = 24.25s

DICPCG:  Solving for w, Initial residual = 0.00364815, Final residual = 7.47229e-12, No Iterations 1
Global Volume-Averaged Solid Fraction (Gs) = 0.0104368
DICPCG:  Solving for T, Initial residual = 0.00174277, Final residual = 7.35221e-06, No Iterations 1
GAMG:  Solving for p_rgh, Initial residual = 0, Final residual = 0, No Iterations 0
time step continuity errors : sum local = 0, global = 0, cumulative = 0
DILUPBiCGStab:  Solving for omega, Initial residual = 1.07927e-05, Final residual = 1.71692e-08, No Iterations 1
DILUPBiCGStab:  Solving for k, Initial residual = 0.000814433, Final residual = 1.47679e-06, No Iterations 1
ExecutionTime = 35.9064 s  ClockTime = 36 s

Courant Number mean: 0 max: 0
Time = 24.5s

DICPCG:  Solving for w, Initial residual = 0.00374079, Final residual = 7.70646e-12, No Iterations 1
Global Volume-Averaged Solid Fraction (Gs) = 0.0104142
DICPCG:  Solving for T, Initial residual = 0.00169836, Final residual = 5.94827e-06, No Iterations 1
GAMG:  Solving for p_rgh, Initial residual = 0, Final residual = 0, No Iterations 0
time step continuity errors : sum local = 0, global = 0, cumulative = 0
DILUPBiCGStab:  Solving for omega, Initial residual = 1.07536e-05, Final residual = 1.70054e-08, No Iterations 1
DILUPBiCGStab:  Solving for k, Initial residual = 0.000819547, Final residual = 1.44367e-06, No Iterations 1
ExecutionTime = 36.2215 s  ClockTime = 37 s

Courant Number mean: 0 max: 0
Time = 24.75s

DICPCG:  Solving for w, Initial residual = 0.00282589, Final residual = 5.79979e-12, No Iterations 1
Global Volume-Averaged Solid Fraction (Gs) = 0.0103961
DICPCG:  Solving for T, Initial residual = 0.00165981, Final residual = 4.93745e-06, No Iterations 1
GAMG:  Solving for p_rgh, Initial residual = 0, Final residual = 0, No Iterations 0
time step continuity errors : sum local = 0, global = 0, cumulative = 0
DILUPBiCGStab:  Solving for omega, Initial residual = 1.07148e-05, Final residual = 1.68423e-08, No Iterations 1
DILUPBiCGStab:  Solving for k, Initial residual = 0.000824709, Final residual = 1.43952e-06, No Iterations 1
ExecutionTime = 36.5381 s  ClockTime = 37 s

Courant Number mean: 0 max: 0
Time = 25s

DICPCG:  Solving for w, Initial residual = 0.00336601, Final residual = 6.93735e-12, No Iterations 1
Global Volume-Averaged Solid Fraction (Gs) = 0.0103818
DICPCG:  Solving for T, Initial residual = 0.00162685, Final residual = 4.18328e-06, No Iterations 1
GAMG:  Solving for p_rgh, Initial residual = 0, Final residual = 0, No Iterations 0
time step continuity errors : sum local = 0, global = 0, cumulative = 0
DILUPBiCGStab:  Solving for omega, Initial residual = 1.06761e-05, Final residual = 1.66816e-08, No Iterations 1
DILUPBiCGStab:  Solving for k, Initial residual = 0.000829921, Final residual = 1.43789e-06, No Iterations 1
ExecutionTime = 37.2189 s  ClockTime = 38 s

Courant Number mean: 0 max: 0
Time = 25.25s

DICPCG:  Solving for w, Initial residual = 0.00327216, Final residual = 6.71647e-12, No Iterations 1
Global Volume-Averaged Solid Fraction (Gs) = 0.0103705
DICPCG:  Solving for T, Initial residual = 0.00159914, Final residual = 3.61576e-06, No Iterations 1
GAMG:  Solving for p_rgh, Initial residual = 0, Final residual = 0, No Iterations 0
time step continuity errors : sum local = 0, global = 0, cumulative = 0
DILUPBiCGStab:  Solving for omega, Initial residual = 1.06377e-05, Final residual = 1.65235e-08, No Iterations 1
DILUPBiCGStab:  Solving for k, Initial residual = 0.00083518, Final residual = 1.43648e-06, No Iterations 1
ExecutionTime = 37.516 s  ClockTime = 38 s

Courant Number mean: 0 max: 0
Time = 25.5s

DICPCG:  Solving for w, Initial residual = 0.00349502, Final residual = 7.14697e-12, No Iterations 1
Global Volume-Averaged Solid Fraction (Gs) = 0.0103617
DICPCG:  Solving for T, Initial residual = 0.00157486, Final residual = 3.15942e-06, No Iterations 1
GAMG:  Solving for p_rgh, Initial residual = 0, Final residual = 0, No Iterations 0
time step continuity errors : sum local = 0, global = 0, cumulative = 0
DILUPBiCGStab:  Solving for omega, Initial residual = 1.05996e-05, Final residual = 1.63681e-08, No Iterations 1
DILUPBiCGStab:  Solving for k, Initial residual = 0.000840482, Final residual = 1.43497e-06, No Iterations 1
ExecutionTime = 37.8091 s  ClockTime = 38 s

Courant Number mean: 0 max: 0
Time = 25.75s

DICPCG:  Solving for w, Initial residual = 0.00352352, Final residual = 7.2782e-12, No Iterations 1
Global Volume-Averaged Solid Fraction (Gs) = 0.0103551
DICPCG:  Solving for T, Initial residual = 0.00155333, Final residual = 2.79203e-06, No Iterations 1
GAMG:  Solving for p_rgh, Initial residual = 0, Final residual = 0, No Iterations 0
time step continuity errors : sum local = 0, global = 0, cumulative = 0
DILUPBiCGStab:  Solving for omega, Initial residual = 1.05616e-05, Final residual = 1.62154e-08, No Iterations 1
DILUPBiCGStab:  Solving for k, Initial residual = 0.000845824, Final residual = 1.43391e-06, No Iterations 1
ExecutionTime = 38.1082 s  ClockTime = 39 s

Courant Number mean: 0 max: 0
Time = 26s

DICPCG:  Solving for w, Initial residual = 0.00277018, Final residual = 5.68619e-12, No Iterations 1
Global Volume-Averaged Solid Fraction (Gs) = 0.0103503
DICPCG:  Solving for T, Initial residual = 0.00153634, Final residual = 2.48297e-06, No Iterations 1
GAMG:  Solving for p_rgh, Initial residual = 0, Final residual = 0, No Iterations 0
time step continuity errors : sum local = 0, global = 0, cumulative = 0
DILUPBiCGStab:  Solving for omega, Initial residual = 1.0523e-05, Final residual = 1.60599e-08, No Iterations 1
DILUPBiCGStab:  Solving for k, Initial residual = 0.000850903, Final residual = 1.43181e-06, No Iterations 1
ExecutionTime = 38.4136 s  ClockTime = 39 s

Courant Number mean: 0 max: 0
Time = 26.25s

DICPCG:  Solving for w, Initial residual = 0.00298272, Final residual = 6.1219e-12, No Iterations 1
Global Volume-Averaged Solid Fraction (Gs) = 0.010347
DICPCG:  Solving for T, Initial residual = 0.0015216, Final residual = 2.22526e-06, No Iterations 1
GAMG:  Solving for p_rgh, Initial residual = 0, Final residual = 0, No Iterations 0
time step continuity errors : sum local = 0, global = 0, cumulative = 0
DILUPBiCGStab:  Solving for omega, Initial residual = 1.04845e-05, Final residual = 1.59132e-08, No Iterations 1
DILUPBiCGStab:  Solving for k, Initial residual = 0.000856305, Final residual = 1.46049e-06, No Iterations 1
ExecutionTime = 38.7196 s  ClockTime = 39 s

Courant Number mean: 0 max: 0
Time = 26.5s

DICPCG:  Solving for w, Initial residual = 0.00327117, Final residual = 6.74109e-12, No Iterations 1
Global Volume-Averaged Solid Fraction (Gs) = 0.0103451
DICPCG:  Solving for T, Initial residual = 0.00151058, Final residual = 2.0013e-06, No Iterations 1
GAMG:  Solving for p_rgh, Initial residual = 0, Final residual = 0, No Iterations 0
time step continuity errors : sum local = 0, global = 0, cumulative = 0
DILUPBiCGStab:  Solving for omega, Initial residual = 1.04471e-05, Final residual = 1.57711e-08, No Iterations 1
DILUPBiCGStab:  Solving for k, Initial residual = 0.000861797, Final residual = 1.43031e-06, No Iterations 1
ExecutionTime = 39.0273 s  ClockTime = 40 s

Courant Number mean: 0 max: 0
Time = 26.75s

DICPCG:  Solving for w, Initial residual = 0.00309816, Final residual = 6.30652e-12, No Iterations 1
Global Volume-Averaged Solid Fraction (Gs) = 0.0103445
DICPCG:  Solving for T, Initial residual = 0.00150274, Final residual = 1.81222e-06, No Iterations 1
GAMG:  Solving for p_rgh, Initial residual = 0, Final residual = 0, No Iterations 0
time step continuity errors : sum local = 0, global = 0, cumulative = 0
DILUPBiCGStab:  Solving for omega, Initial residual = 1.04097e-05, Final residual = 1.5633e-08, No Iterations 1
DILUPBiCGStab:  Solving for k, Initial residual = 0.000867341, Final residual = 1.42835e-06, No Iterations 1
ExecutionTime = 39.3751 s  ClockTime = 40 s

Courant Number mean: 0 max: 0
Time = 27s

DICPCG:  Solving for w, Initial residual = 0.00324156, Final residual = 6.66209e-12, No Iterations 1
Global Volume-Averaged Solid Fraction (Gs) = 0.0103449
DICPCG:  Solving for T, Initial residual = 0.00149888, Final residual = 1.67748e-06, No Iterations 1
GAMG:  Solving for p_rgh, Initial residual = 0, Final residual = 0, No Iterations 0
time step continuity errors : sum local = 0, global = 0, cumulative = 0
DILUPBiCGStab:  Solving for omega, Initial residual = 1.03726e-05, Final residual = 1.54976e-08, No Iterations 1
DILUPBiCGStab:  Solving for k, Initial residual = 0.000872931, Final residual = 1.4275e-06, No Iterations 1
ExecutionTime = 39.6748 s  ClockTime = 40 s

Courant Number mean: 0 max: 0
Time = 27.25s

DICPCG:  Solving for w, Initial residual = 0.00302784, Final residual = 6.2865e-12, No Iterations 1
Global Volume-Averaged Solid Fraction (Gs) = 0.0103463
DICPCG:  Solving for T, Initial residual = 0.00149672, Final residual = 1.65351e-06, No Iterations 1
[...]
GAMG:  Solving for p_rgh, Initial residual = 0, Final residual = 0, No Iterations 0
time step continuity errors : sum local = 0, global = 0, cumulative = 0
DILUPBiCGStab:  Solving for omega, Initial residual = 2.87989e-07, Final residual = 3.76934e-10, No Iterations 1
DILUPBiCGStab:  Solving for k, Initial residual = 0.00299727, Final residual = 3.71302e-06, No Iterations 1
ExecutionTime = 281.58 s  ClockTime = 283 s

Courant Number mean: 0 max: 0
Time = 193.5s

DICPCG:  Solving for w, Initial residual = 0.000309266, Final residual = 6.18191e-13, No Iterations 1
Global Volume-Averaged Solid Fraction (Gs) = 0.0168419
DICPCG:  Solving for T, Initial residual = 0.00266529, Final residual = 2.42429e-05, No Iterations 1
GAMG:  Solving for p_rgh, Initial residual = 0, Final residual = 0, No Iterations 0
time step continuity errors : sum local = 0, global = 0, cumulative = 0
DILUPBiCGStab:  Solving for omega, Initial residual = 2.86414e-07, Final residual = 3.73677e-10, No Iterations 1
DILUPBiCGStab:  Solving for k, Initial residual = 0.00299605, Final residual = 3.70981e-06, No Iterations 1
ExecutionTime = 281.908 s  ClockTime = 283 s

Courant Number mean: 0 max: 0
Time = 193.75s

DICPCG:  Solving for w, Initial residual = 0.000325087, Final residual = 6.51575e-13, No Iterations 1
Global Volume-Averaged Solid Fraction (Gs) = 0.0167276
DICPCG:  Solving for T, Initial residual = 0.00211131, Final residual = 2.06022e-05, No Iterations 1
GAMG:  Solving for p_rgh, Initial residual = 0, Final residual = 0, No Iterations 0
time step continuity errors : sum local = 0, global = 0, cumulative = 0
DILUPBiCGStab:  Solving for omega, Initial residual = 2.84843e-07, Final residual = 3.70437e-10, No Iterations 1
DILUPBiCGStab:  Solving for k, Initial residual = 0.00299482, Final residual = 3.70654e-06, No Iterations 1
ExecutionTime = 282.229 s  ClockTime = 284 s

Courant Number mean: 0 max: 0
Time = 194s

DICPCG:  Solving for w, Initial residual = 0.000357164, Final residual = 7.17531e-13, No Iterations 1
Global Volume-Averaged Solid Fraction (Gs) = 0.0168435
DICPCG:  Solving for T, Initial residual = 0.00266459, Final residual = 2.42185e-05, No Iterations 1
GAMG:  Solving for p_rgh, Initial residual = 0, Final residual = 0, No Iterations 0
time step continuity errors : sum local = 0, global = 0, cumulative = 0
DILUPBiCGStab:  Solving for omega, Initial residual = 2.83276e-07, Final residual = 3.67214e-10, No Iterations 1
DILUPBiCGStab:  Solving for k, Initial residual = 0.00299359, Final residual = 3.70321e-06, No Iterations 1
ExecutionTime = 282.549 s  ClockTime = 284 s

Courant Number mean: 0 max: 0
Time = 194.25s

DICPCG:  Solving for w, Initial residual = 0.000310977, Final residual = 6.23944e-13, No Iterations 1
Global Volume-Averaged Solid Fraction (Gs) = 0.0167296
DICPCG:  Solving for T, Initial residual = 0.00211069, Final residual = 2.05768e-05, No Iterations 1
GAMG:  Solving for p_rgh, Initial residual = 0, Final residual = 0, No Iterations 0
time step continuity errors : sum local = 0, global = 0, cumulative = 0
DILUPBiCGStab:  Solving for omega, Initial residual = 2.81714e-07, Final residual = 3.64007e-10, No Iterations 1
DILUPBiCGStab:  Solving for k, Initial residual = 0.00299235, Final residual = 3.69981e-06, No Iterations 1
ExecutionTime = 282.873 s  ClockTime = 284 s

Courant Number mean: 0 max: 0
Time = 194.5s

DICPCG:  Solving for w, Initial residual = 0.000306626, Final residual = 6.18299e-13, No Iterations 1
Global Volume-Averaged Solid Fraction (Gs) = 0.0168452
DICPCG:  Solving for T, Initial residual = 0.0026639, Final residual = 2.41943e-05, No Iterations 1
GAMG:  Solving for p_rgh, Initial residual = 0, Final residual = 0, No Iterations 0
time step continuity errors : sum local = 0, global = 0, cumulative = 0
DILUPBiCGStab:  Solving for omega, Initial residual = 2.80156e-07, Final residual = 3.60823e-10, No Iterations 1
DILUPBiCGStab:  Solving for k, Initial residual = 0.00299111, Final residual = 3.69635e-06, No Iterations 1
ExecutionTime = 283.202 s  ClockTime = 285 s

Courant Number mean: 0 max: 0
Time = 194.75s

DICPCG:  Solving for w, Initial residual = 0.000333084, Final residual = 6.703e-13, No Iterations 1
Global Volume-Averaged Solid Fraction (Gs) = 0.0167316
DICPCG:  Solving for T, Initial residual = 0.00211006, Final residual = 2.05517e-05, No Iterations 1
GAMG:  Solving for p_rgh, Initial residual = 0, Final residual = 0, No Iterations 0
time step continuity errors : sum local = 0, global = 0, cumulative = 0
DILUPBiCGStab:  Solving for omega, Initial residual = 2.78611e-07, Final residual = 3.57663e-10, No Iterations 1
DILUPBiCGStab:  Solving for k, Initial residual = 0.00298988, Final residual = 3.69283e-06, No Iterations 1
ExecutionTime = 283.531 s  ClockTime = 285 s

Courant Number mean: 0 max: 0
Time = 195s

DICPCG:  Solving for w, Initial residual = 0.000345073, Final residual = 6.98298e-13, No Iterations 1
Global Volume-Averaged Solid Fraction (Gs) = 0.0168468
DICPCG:  Solving for T, Initial residual = 0.0026632, Final residual = 2.41702e-05, No Iterations 1
GAMG:  Solving for p_rgh, Initial residual = 0, Final residual = 0, No Iterations 0
time step continuity errors : sum local = 0, global = 0, cumulative = 0
DILUPBiCGStab:  Solving for omega, Initial residual = 2.77071e-07, Final residual = 3.54523e-10, No Iterations 1
DILUPBiCGStab:  Solving for k, Initial residual = 0.00298864, Final residual = 3.68928e-06, No Iterations 1
ExecutionTime = 284.23 s  ClockTime = 286 s

Courant Number mean: 0 max: 0
Time = 195.25s

DICPCG:  Solving for w, Initial residual = 0.000308037, Final residual = 6.15307e-13, No Iterations 1
Global Volume-Averaged Solid Fraction (Gs) = 0.0167336
DICPCG:  Solving for T, Initial residual = 0.00210944, Final residual = 2.05268e-05, No Iterations 1
GAMG:  Solving for p_rgh, Initial residual = 0, Final residual = 0, No Iterations 0
time step continuity errors : sum local = 0, global = 0, cumulative = 0
DILUPBiCGStab:  Solving for omega, Initial residual = 2.75536e-07, Final residual = 3.51399e-10, No Iterations 1
DILUPBiCGStab:  Solving for k, Initial residual = 0.0029874, Final residual = 3.68567e-06, No Iterations 1
ExecutionTime = 284.592 s  ClockTime = 286 s

Courant Number mean: 0 max: 0
Time = 195.5s

DICPCG:  Solving for w, Initial residual = 0.000358542, Final residual = 7.18979e-13, No Iterations 1
Global Volume-Averaged Solid Fraction (Gs) = 0.0168485
DICPCG:  Solving for T, Initial residual = 0.00266251, Final residual = 2.41463e-05, No Iterations 1
GAMG:  Solving for p_rgh, Initial residual = 0, Final residual = 0, No Iterations 0
time step continuity errors : sum local = 0, global = 0, cumulative = 0
DILUPBiCGStab:  Solving for omega, Initial residual = 2.74005e-07, Final residual = 3.48297e-10, No Iterations 1
DILUPBiCGStab:  Solving for k, Initial residual = 0.00298617, Final residual = 3.682e-06, No Iterations 1
ExecutionTime = 284.938 s  ClockTime = 286 s

Courant Number mean: 0 max: 0
Time = 195.75s

DICPCG:  Solving for w, Initial residual = 0.000307654, Final residual = 6.18089e-13, No Iterations 1
Global Volume-Averaged Solid Fraction (Gs) = 0.0167357
DICPCG:  Solving for T, Initial residual = 0.00210882, Final residual = 2.05021e-05, No Iterations 1
GAMG:  Solving for p_rgh, Initial residual = 0, Final residual = 0, No Iterations 0
time step continuity errors : sum local = 0, global = 0, cumulative = 0
DILUPBiCGStab:  Solving for omega, Initial residual = 2.72479e-07, Final residual = 3.45226e-10, No Iterations 1
DILUPBiCGStab:  Solving for k, Initial residual = 0.00298493, Final residual = 3.67827e-06, No Iterations 1
ExecutionTime = 285.284 s  ClockTime = 287 s

Courant Number mean: 0 max: 0
Time = 196s

DICPCG:  Solving for w, Initial residual = 0.000298665, Final residual = 5.97847e-13, No Iterations 1
Global Volume-Averaged Solid Fraction (Gs) = 0.0168502
DICPCG:  Solving for T, Initial residual = 0.00266181, Final residual = 2.41227e-05, No Iterations 1
GAMG:  Solving for p_rgh, Initial residual = 0, Final residual = 0, No Iterations 0
time step continuity errors : sum local = 0, global = 0, cumulative = 0
DILUPBiCGStab:  Solving for omega, Initial residual = 2.70957e-07, Final residual = 3.42175e-10, No Iterations 1
DILUPBiCGStab:  Solving for k, Initial residual = 0.0029837, Final residual = 3.67449e-06, No Iterations 1
ExecutionTime = 285.637 s  ClockTime = 287 s

Courant Number mean: 0 max: 0
Time = 196.25s

DICPCG:  Solving for w, Initial residual = 0.000331605, Final residual = 6.67052e-13, No Iterations 1
Global Volume-Averaged Solid Fraction (Gs) = 0.0167377
DICPCG:  Solving for T, Initial residual = 0.0021082, Final residual = 2.04777e-05, No Iterations 1
GAMG:  Solving for p_rgh, Initial residual = 0, Final residual = 0, No Iterations 0
time step continuity errors : sum local = 0, global = 0, cumulative = 0
DILUPBiCGStab:  Solving for omega, Initial residual = 2.6944e-07, Final residual = 3.39141e-10, No Iterations 1
DILUPBiCGStab:  Solving for k, Initial residual = 0.00298247, Final residual = 3.67064e-06, No Iterations 1
ExecutionTime = 286 s  ClockTime = 287 s

Courant Number mean: 0 max: 0
Time = 196.5s

DICPCG:  Solving for w, Initial residual = 0.000336623, Final residual = 6.80268e-13, No Iterations 1
Global Volume-Averaged Solid Fraction (Gs) = 0.0168519
DICPCG:  Solving for T, Initial residual = 0.00266112, Final residual = 2.40991e-05, No Iterations 1
GAMG:  Solving for p_rgh, Initial residual = 0, Final residual = 0, No Iterations 0
time step continuity errors : sum local = 0, global = 0, cumulative = 0
DILUPBiCGStab:  Solving for omega, Initial residual = 2.67927e-07, Final residual = 3.36126e-10, No Iterations 1
DILUPBiCGStab:  Solving for k, Initial residual = 0.00298124, Final residual = 3.66674e-06, No Iterations 1
ExecutionTime = 286.332 s  ClockTime = 288 s

Courant Number mean: 0 max: 0
Time = 196.75s

DICPCG:  Solving for w, Initial residual = 0.000374577, Final residual = 7.55799e-13, No Iterations 1
Global Volume-Averaged Solid Fraction (Gs) = 0.0167397
DICPCG:  Solving for T, Initial residual = 0.00210758, Final residual = 2.04536e-05, No Iterations 1
GAMG:  Solving for p_rgh, Initial residual = 0, Final residual = 0, No Iterations 0
time step continuity errors : sum local = 0, global = 0, cumulative = 0
DILUPBiCGStab:  Solving for omega, Initial residual = 2.66419e-07, Final residual = 3.33132e-10, No Iterations 1
DILUPBiCGStab:  Solving for k, Initial residual = 0.00298001, Final residual = 3.66277e-06, No Iterations 1
ExecutionTime = 286.672 s  ClockTime = 288 s

Courant Number mean: 0 max: 0
Time = 197s

DICPCG:  Solving for w, Initial residual = 0.000324172, Final residual = 6.50732e-13, No Iterations 1
Global Volume-Averaged Solid Fraction (Gs) = 0.0168536
DICPCG:  Solving for T, Initial residual = 0.00266043, Final residual = 2.40758e-05, No Iterations 1
GAMG:  Solving for p_rgh, Initial residual = 0, Final residual = 0, No Iterations 0
time step continuity errors : sum local = 0, global = 0, cumulative = 0
DILUPBiCGStab:  Solving for omega, Initial residual = 2.64915e-07, Final residual = 3.30158e-10, No Iterations 1
DILUPBiCGStab:  Solving for k, Initial residual = 0.00297878, Final residual = 3.65875e-06, No Iterations 1
ExecutionTime = 287.01 s  ClockTime = 289 s

Courant Number mean: 0 max: 0
Time = 197.25s

DICPCG:  Solving for w, Initial residual = 0.000299625, Final residual = 5.97772e-13, No Iterations 1
Global Volume-Averaged Solid Fraction (Gs) = 0.0167418
DICPCG:  Solving for T, Initial residual = 0.00210696, Final residual = 2.04297e-05, No Iterations 1
GAMG:  Solving for p_rgh, Initial residual = 0, Final residual = 0, No Iterations 0
time step continuity errors : sum local = 0, global = 0, cumulative = 0
DILUPBiCGStab:  Solving for omega, Initial residual = 2.63416e-07, Final residual = 3.27214e-10, No Iterations 1
DILUPBiCGStab:  Solving for k, Initial residual = 0.00297755, Final residual = 3.65467e-06, No Iterations 1
ExecutionTime = 287.349 s  ClockTime = 289 s

Courant Number mean: 0 max: 0
Time = 197.5s

DICPCG:  Solving for w, Initial residual = 0.000296824, Final residual = 5.94905e-13, No Iterations 1
Global Volume-Averaged Solid Fraction (Gs) = 0.0168553
DICPCG:  Solving for T, Initial residual = 0.00265973, Final residual = 2.40527e-05, No Iterations 1
GAMG:  Solving for p_rgh, Initial residual = 0, Final residual = 0, No Iterations 0
time step continuity errors : sum local = 0, global = 0, cumulative = 0
DILUPBiCGStab:  Solving for omega, Initial residual = 2.61922e-07, Final residual = 3.24304e-10, No Iterations 1
DILUPBiCGStab:  Solving for k, Initial residual = 0.00297633, Final residual = 3.65052e-06, No Iterations 1
ExecutionTime = 288.072 s  ClockTime = 290 s

Courant Number mean: 0 max: 0
Time = 197.75s

DICPCG:  Solving for w, Initial residual = 0.000342785, Final residual = 6.89306e-13, No Iterations 1
Global Volume-Averaged Solid Fraction (Gs) = 0.0167439
DICPCG:  Solving for T, Initial residual = 0.00210634, Final residual = 2.04061e-05, No Iterations 1
GAMG:  Solving for p_rgh, Initial residual = 0, Final residual = 0, No Iterations 0
time step continuity errors : sum local = 0, global = 0, cumulative = 0
DILUPBiCGStab:  Solving for omega, Initial residual = 2.60433e-07, Final residual = 3.21428e-10, No Iterations 1
DILUPBiCGStab:  Solving for k, Initial residual = 0.0029751, Final residual = 3.64632e-06, No Iterations 1
ExecutionTime = 288.405 s  ClockTime = 290 s

Courant Number mean: 0 max: 0
Time = 198s

DICPCG:  Solving for w, Initial residual = 0.00031749, Final residual = 6.41513e-13, No Iterations 1
Global Volume-Averaged Solid Fraction (Gs) = 0.016857
DICPCG:  Solving for T, Initial residual = 0.00265904, Final residual = 2.40297e-05, No Iterations 1
GAMG:  Solving for p_rgh, Initial residual = 0, Final residual = 0, No Iterations 0
time step continuity errors : sum local = 0, global = 0, cumulative = 0
DILUPBiCGStab:  Solving for omega, Initial residual = 2.58948e-07, Final residual = 3.18587e-10, No Iterations 1
DILUPBiCGStab:  Solving for k, Initial residual = 0.00297388, Final residual = 3.64205e-06, No Iterations 1
ExecutionTime = 288.736 s  ClockTime = 290 s

Courant Number mean: 0 max: 0
Time = 198.25s

DICPCG:  Solving for w, Initial residual = 0.000333604, Final residual = 6.66508e-13, No Iterations 1
Global Volume-Averaged Solid Fraction (Gs) = 0.016746
DICPCG:  Solving for T, Initial residual = 0.00210572, Final residual = 2.03827e-05, No Iterations 1
GAMG:  Solving for p_rgh, Initial residual = 0, Final residual = 0, No Iterations 0
time step continuity errors : sum local = 0, global = 0, cumulative = 0
DILUPBiCGStab:  Solving for omega, Initial residual = 2.57468e-07, Final residual = 3.1576e-10, No Iterations 1
DILUPBiCGStab:  Solving for k, Initial residual = 0.00297266, Final residual = 3.63773e-06, No Iterations 1
ExecutionTime = 289.078 s  ClockTime = 291 s

Courant Number mean: 0 max: 0
Time = 198.5s

DICPCG:  Solving for w, Initial residual = 0.00031419, Final residual = 6.26752e-13, No Iterations 1
Global Volume-Averaged Solid Fraction (Gs) = 0.0168588
DICPCG:  Solving for T, Initial residual = 0.00265835, Final residual = 2.40069e-05, No Iterations 1
GAMG:  Solving for p_rgh, Initial residual = 0, Final residual = 0, No Iterations 0
time step continuity errors : sum local = 0, global = 0, cumulative = 0
DILUPBiCGStab:  Solving for omega, Initial residual = 2.55993e-07, Final residual = 3.1295e-10, No Iterations 1
DILUPBiCGStab:  Solving for k, Initial residual = 0.00297144, Final residual = 3.63335e-06, No Iterations 1
ExecutionTime = 289.407 s  ClockTime = 291 s

Courant Number mean: 0 max: 0
Time = 198.75s

DICPCG:  Solving for w, Initial residual = 0.000296817, Final residual = 5.93012e-13, No Iterations 1
Global Volume-Averaged Solid Fraction (Gs) = 0.0167481
DICPCG:  Solving for T, Initial residual = 0.00210511, Final residual = 2.03595e-05, No Iterations 1
GAMG:  Solving for p_rgh, Initial residual = 0, Final residual = 0, No Iterations 0
time step continuity errors : sum local = 0, global = 0, cumulative = 0
DILUPBiCGStab:  Solving for omega, Initial residual = 2.54523e-07, Final residual = 3.10159e-10, No Iterations 1
DILUPBiCGStab:  Solving for k, Initial residual = 0.00297022, Final residual = 3.6289e-06, No Iterations 1
ExecutionTime = 289.737 s  ClockTime = 291 s

Courant Number mean: 0 max: 0
Time = 199s

DICPCG:  Solving for w, Initial residual = 0.000322429, Final residual = 6.49975e-13, No Iterations 1
Global Volume-Averaged Solid Fraction (Gs) = 0.0168605
DICPCG:  Solving for T, Initial residual = 0.00265767, Final residual = 2.39843e-05, No Iterations 1
GAMG:  Solving for p_rgh, Initial residual = 0, Final residual = 0, No Iterations 0
time step continuity errors : sum local = 0, global = 0, cumulative = 0
DILUPBiCGStab:  Solving for omega, Initial residual = 2.53057e-07, Final residual = 3.07385e-10, No Iterations 1
DILUPBiCGStab:  Solving for k, Initial residual = 0.002969, Final residual = 3.6244e-06, No Iterations 1
ExecutionTime = 290.07 s  ClockTime = 292 s

Courant Number mean: 0 max: 0
Time = 199.25s

DICPCG:  Solving for w, Initial residual = 0.000343629, Final residual = 6.89197e-13, No Iterations 1
Global Volume-Averaged Solid Fraction (Gs) = 0.0167502
DICPCG:  Solving for T, Initial residual = 0.00210449, Final residual = 2.03366e-05, No Iterations 1
GAMG:  Solving for p_rgh, Initial residual = 0, Final residual = 0, No Iterations 0
time step continuity errors : sum local = 0, global = 0, cumulative = 0
DILUPBiCGStab:  Solving for omega, Initial residual = 2.51597e-07, Final residual = 3.04628e-10, No Iterations 1
DILUPBiCGStab:  Solving for k, Initial residual = 0.00296778, Final residual = 3.61983e-06, No Iterations 1
ExecutionTime = 290.406 s  ClockTime = 292 s

Courant Number mean: 0 max: 0
Time = 199.5s

DICPCG:  Solving for w, Initial residual = 0.000312019, Final residual = 6.26668e-13, No Iterations 1
Global Volume-Averaged Solid Fraction (Gs) = 0.0168623
DICPCG:  Solving for T, Initial residual = 0.00265698, Final residual = 2.39619e-05, No Iterations 1
GAMG:  Solving for p_rgh, Initial residual = 0, Final residual = 0, No Iterations 0
time step continuity errors : sum local = 0, global = 0, cumulative = 0
DILUPBiCGStab:  Solving for omega, Initial residual = 2.50141e-07, Final residual = 3.01886e-10, No Iterations 1
DILUPBiCGStab:  Solving for k, Initial residual = 0.00296657, Final residual = 3.61521e-06, No Iterations 1
ExecutionTime = 290.75 s  ClockTime = 292 s

Courant Number mean: 0 max: 0
Time = 199.75s

DICPCG:  Solving for w, Initial residual = 0.000328412, Final residual = 6.58428e-13, No Iterations 1
Global Volume-Averaged Solid Fraction (Gs) = 0.0167523
DICPCG:  Solving for T, Initial residual = 0.00210388, Final residual = 2.0314e-05, No Iterations 1
GAMG:  Solving for p_rgh, Initial residual = 0, Final residual = 0, No Iterations 0
time step continuity errors : sum local = 0, global = 0, cumulative = 0
DILUPBiCGStab:  Solving for omega, Initial residual = 2.4869e-07, Final residual = 2.99164e-10, No Iterations 1
DILUPBiCGStab:  Solving for k, Initial residual = 0.00296536, Final residual = 3.61052e-06, No Iterations 1
ExecutionTime = 291.087 s  ClockTime = 293 s

Courant Number mean: 0 max: 0
Time = 200s

DICPCG:  Solving for w, Initial residual = 0.000312478, Final residual = 6.22998e-13, No Iterations 1
Global Volume-Averaged Solid Fraction (Gs) = 0.0168641
DICPCG:  Solving for T, Initial residual = 0.00265629, Final residual = 2.39397e-05, No Iterations 1
GAMG:  Solving for p_rgh, Initial residual = 0, Final residual = 0, No Iterations 0
time step continuity errors : sum local = 0, global = 0, cumulative = 0
DILUPBiCGStab:  Solving for omega, Initial residual = 2.47244e-07, Final residual = 2.96456e-10, No Iterations 1
DILUPBiCGStab:  Solving for k, Initial residual = 0.00296414, Final residual = 3.60578e-06, No Iterations 1
ExecutionTime = 291.79 s  ClockTime = 293 s

End

